


 37 43  0  0  0  0  0  0  0  0999 V2000
    4.6448   12.0017   24.1992 C   0  0  0  0  0  0  0  0  0  0  0  0
    5.9376   11.2269   24.0131 C   0  0  0  0  0  0  0  0  0  0  0  0
    6.0998    9.9824   23.4169 C   0  0  0  0  0  0  0  0  0  0  0  0
    7.3884    9.4610   23.3195 C   0  0  0  0  0  0  0  0  0  0  0  0
    8.4873   10.1872   23.8018 C   0  0  0  0  0  0  0  0  0  0  0  0
    8.3162   11.4445   24.3953 C   0  0  0  0  0  0  0  0  0  0  0  0
    7.0356   11.9644   24.5130 C   0  0  0  0  0  0  0  0  0  0  0  0
    6.5490   13.2252   25.0612 C   0  0  0  0  0  0  0  0  0  0  0  0
    7.1920   14.2932   25.6850 C   0  0  0  0  0  0  0  0  0  0  0  0
    6.4174   15.4038   26.0713 C   0  0  0  0  0  0  0  0  0  0  0  0
    5.0296   15.4395   25.8620 C   0  0  0  0  0  0  0  0  0  0  0  0
    4.3797   14.3638   25.2633 C   0  0  0  0  0  0  0  0  0  0  0  0
    5.1435   13.2710   24.8727 C   0  0  0  0  0  0  0  0  0  0  0  0
    8.6150   14.3060   25.9805 C   0  0  0  0  0  0  0  0  0  0  0  0
    9.6027   14.0796   25.1359 N   0  0  0  0  0  0  0  0  0  0  0  0
   10.7589   14.2292   25.8630 C   0  0  0  0  0  0  0  0  0  0  0  0
   12.0881   14.1071   25.4622 C   0  0  0  0  0  0  0  0  0  0  0  0
   13.0342   14.3294   26.4513 C   0  0  0  0  0  0  0  0  0  0  0  0
   12.7533   14.6438   27.7403 N   0  0  0  0  0  0  0  0  0  0  0  0
   11.4613   14.7601   28.1269 C   0  0  0  0  0  0  0  0  0  0  0  0
   10.4713   14.5508   27.1822 C   0  0  0  0  0  0  0  0  0  0  0  0
    9.1043   14.5927   27.2331 N   0  0  0  0  0  0  0  0  0  0  0  0
    8.5634   14.7939   28.0307 H   0  0  0  0  0  0  0  0  0  0  0  0
    2.2055   10.8690   23.4074 O   0  0  0  0  0  0  0  0  0  0  0  0
    2.5842   10.7186   24.5619 C   0  0  0  0  0  0  0  0  0  0  0  0
    3.7290   11.2953   25.0667 N   0  0  0  0  0  0  0  0  0  0  0  0
    3.9257   11.2256   26.0289 H   0  0  0  0  0  0  0  0  0  0  0  0
    1.8319    9.8543   25.5028 C   0  0  0  0  0  0  0  0  0  0  0  0
    0.5826   10.2375   26.0132 C   0  0  0  0  0  0  0  0  0  0  0  0
   -0.0651    9.3880   26.8970 C   0  0  0  0  0  0  0  0  0  0  0  0
    0.4007    8.1952   27.3265 N   0  0  0  0  0  0  0  0  0  0  0  0
    1.5898    7.8650   26.7913 C   0  0  0  0  0  0  0  0  0  0  0  0
    2.2553    6.7009   27.0588 N   0  0  0  0  0  0  0  0  0  0  0  0
    3.4357    6.6674   26.3611 C   0  0  0  0  0  0  0  0  0  0  0  0
    3.5233    7.8339   25.6313 C   0  0  0  0  0  0  0  0  0  0  0  0
    2.3534    8.6058   25.8952 C   0  0  0  0  0  0  0  0  0  0  0  0
    1.9348    5.9923   27.6624 H   0  0  0  0  0  0  0  0  0  0  0  0
 24 25  2  0
 25 26  1  0
  1 26  1  0
  1  2  1  0
  2  3  2  0
  3  4  1  0
  4  5  2  0
  5  6  1  0
  6  7  2  0
  7  8  1  0
  8  9  2  0
  9 14  1  0
 14 15  2  0
 15 16  1  0
 16 17  2  0
 17 18  1  0
 18 19  2  0
 19 20  1  0
 20 21  2  0
 21 22  1  0
  9 10  1  0
 10 11  2  0
 11 12  1  0
 12 13  2  0
 25 28  1  0
 28 29  2  0
 29 30  1  0
 30 31  2  0
 31 32  1  0
 32 33  1  0
 33 34  1  0
 34 35  2  0
 35 36  1  0
 13  1  1  0
 36 28  1  0
  7  2  1  0
 13  8  1  0
 36 32  2  0
 22 14  1  0
 21 16  1  0
 26 27  1  0
 22 23  1  0
 33 37  1  0
M  END
> <minimizedAffinity>
-14.59209

> <CNNscore>
0.9150192142

> <CNNaffinity>
8.0796747208

> <CNN_VS>
7.3930578232

> <CNNaffinity_variance>
0.2441822290

$$$$



 37 43  0  0  0  0  0  0  0  0999 V2000
    4.4224   11.6942   24.2513 C   0  0  0  0  0  0  0  0  0  0  0  0
    5.7655   11.0050   24.0856 C   0  0  0  0  0  0  0  0  0  0  0  0
    6.0094    9.7429   23.5581 C   0  0  0  0  0  0  0  0  0  0  0  0
    7.3312    9.3109   23.4667 C   0  0  0  0  0  0  0  0  0  0  0  0
    8.3810   10.1412   23.8865 C   0  0  0  0  0  0  0  0  0  0  0  0
    8.1271   11.4152   24.4106 C   0  0  0  0  0  0  0  0  0  0  0  0
    6.8138   11.8474   24.5223 C   0  0  0  0  0  0  0  0  0  0  0  0
    6.2445   13.0995   25.0070 C   0  0  0  0  0  0  0  0  0  0  0  0
    6.8167   14.2454   25.5571 C   0  0  0  0  0  0  0  0  0  0  0  0
    5.9688   15.3179   25.8940 C   0  0  0  0  0  0  0  0  0  0  0  0
    4.5792   15.2414   25.7087 C   0  0  0  0  0  0  0  0  0  0  0  0
    4.0010   14.0887   25.1843 C   0  0  0  0  0  0  0  0  0  0  0  0
    4.8368   13.0329   24.8422 C   0  0  0  0  0  0  0  0  0  0  0  0
    8.2391   14.3778   25.8249 C   0  0  0  0  0  0  0  0  0  0  0  0
    8.8014   15.0464   26.8133 N   0  0  0  0  0  0  0  0  0  0  0  0
   10.1549   14.8585   26.6700 C   0  0  0  0  0  0  0  0  0  0  0  0
   11.2100   15.3377   27.4444 C   0  0  0  0  0  0  0  0  0  0  0  0
   12.4773   14.9567   27.0304 C   0  0  0  0  0  0  0  0  0  0  0  0
   12.7424   14.1764   25.9533 N   0  0  0  0  0  0  0  0  0  0  0  0
   11.7157   13.7138   25.2023 C   0  0  0  0  0  0  0  0  0  0  0  0
   10.4260   14.0600   25.5676 C   0  0  0  0  0  0  0  0  0  0  0  0
    9.1947   13.7682   25.0465 N   0  0  0  0  0  0  0  0  0  0  0  0
    9.0224   13.2160   24.2499 H   0  0  0  0  0  0  0  0  0  0  0  0
    2.4906    9.7926   23.5355 O   0  0  0  0  0  0  0  0  0  0  0  0
    2.6993   10.0109   24.7220 C   0  0  0  0  0  0  0  0  0  0  0  0
    3.5732   10.9751   25.1744 N   0  0  0  0  0  0  0  0  0  0  0  0
    3.6199   11.1767   26.1369 H   0  0  0  0  0  0  0  0  0  0  0  0
    2.0323    9.2050   25.7726 C   0  0  0  0  0  0  0  0  0  0  0  0
    2.5646    7.9827   26.2093 C   0  0  0  0  0  0  0  0  0  0  0  0
    1.8869    7.2727   27.1885 C   0  0  0  0  0  0  0  0  0  0  0  0
    0.7334    7.6522   27.7799 N   0  0  0  0  0  0  0  0  0  0  0  0
    0.2775    8.8397   27.3421 C   0  0  0  0  0  0  0  0  0  0  0  0
   -0.8610    9.4414   27.8017 N   0  0  0  0  0  0  0  0  0  0  0  0
   -1.0508   10.6362   27.1551 C   0  0  0  0  0  0  0  0  0  0  0  0
   -0.0096   10.8006   26.2664 C   0  0  0  0  0  0  0  0  0  0  0  0
    0.8447    9.6639   26.3757 C   0  0  0  0  0  0  0  0  0  0  0  0
   -1.4561    9.0721   28.4936 H   0  0  0  0  0  0  0  0  0  0  0  0
 24 25  2  0
 25 26  1  0
  1 26  1  0
  1  2  1  0
  2  3  2  0
  3  4  1  0
  4  5  2  0
  5  6  1  0
  6  7  2  0
  7  8  1  0
  8  9  2  0
  9 14  1  0
 14 15  2  0
 15 16  1  0
 16 17  2  0
 17 18  1  0
 18 19  2  0
 19 20  1  0
 20 21  2  0
 21 22  1  0
  9 10  1  0
 10 11  2  0
 11 12  1  0
 12 13  2  0
 25 28  1  0
 28 29  2  0
 29 30  1  0
 30 31  2  0
 31 32  1  0
 32 33  1  0
 33 34  1  0
 34 35  2  0
 35 36  1  0
 13  1  1  0
 36 28  1  0
  7  2  1  0
 13  8  1  0
 36 32  2  0
 22 14  1  0
 21 16  1  0
 26 27  1  0
 22 23  1  0
 33 37  1  0
M  END
> <minimizedAffinity>
-14.95249

> <CNNscore>
0.7479870915

> <CNNaffinity>
7.9312934875

> <CNN_VS>
5.9325051308

> <CNNaffinity_variance>
0.2761875093

$$$$



 37 43  0  0  0  0  0  0  0  0999 V2000
    4.2176   11.6589   23.9496 C   0  0  0  0  0  0  0  0  0  0  0  0
    5.5793   11.0000   23.8160 C   0  0  0  0  0  0  0  0  0  0  0  0
    5.8694    9.7637   23.2521 C   0  0  0  0  0  0  0  0  0  0  0  0
    7.2018    9.3586   23.2015 C   0  0  0  0  0  0  0  0  0  0  0  0
    8.2169   10.1901   23.6973 C   0  0  0  0  0  0  0  0  0  0  0  0
    7.9168   11.4383   24.2579 C   0  0  0  0  0  0  0  0  0  0  0  0
    6.5921   11.8430   24.3291 C   0  0  0  0  0  0  0  0  0  0  0  0
    5.9790   13.0654   24.8358 C   0  0  0  0  0  0  0  0  0  0  0  0
    6.5056   14.1990   25.4531 C   0  0  0  0  0  0  0  0  0  0  0  0
    5.6239   15.2428   25.7934 C   0  0  0  0  0  0  0  0  0  0  0  0
    4.2451   15.1494   25.5457 C   0  0  0  0  0  0  0  0  0  0  0  0
    3.7117   14.0080   24.9536 C   0  0  0  0  0  0  0  0  0  0  0  0
    4.5811   12.9809   24.6082 C   0  0  0  0  0  0  0  0  0  0  0  0
    7.9125   14.3455   25.7868 C   0  0  0  0  0  0  0  0  0  0  0  0
    8.4243   15.0601   26.7705 N   0  0  0  0  0  0  0  0  0  0  0  0
    9.7832   14.8675   26.7055 C   0  0  0  0  0  0  0  0  0  0  0  0
   10.7978   15.3836   27.5097 C   0  0  0  0  0  0  0  0  0  0  0  0
   12.0842   14.9855   27.1791 C   0  0  0  0  0  0  0  0  0  0  0  0
   12.4032   14.1564   26.1543 N   0  0  0  0  0  0  0  0  0  0  0  0
   11.4157   13.6580   25.3741 C   0  0  0  0  0  0  0  0  0  0  0  0
   10.1094   14.0191   25.6567 C   0  0  0  0  0  0  0  0  0  0  0  0
    8.9060   13.7018   25.0874 N   0  0  0  0  0  0  0  0  0  0  0  0
    8.7741   13.1129   24.3095 H   0  0  0  0  0  0  0  0  0  0  0  0
    1.5339   11.0539   23.4097 O   0  0  0  0  0  0  0  0  0  0  0  0
    2.0564   10.5936   24.4167 C   0  0  0  0  0  0  0  0  0  0  0  0
    3.3438   10.8901   24.8074 N   0  0  0  0  0  0  0  0  0  0  0  0
    3.6724   10.5751   25.6803 H   0  0  0  0  0  0  0  0  0  0  0  0
    1.3275    9.6352   25.2817 C   0  0  0  0  0  0  0  0  0  0  0  0
    0.8079   10.0183   26.5272 C   0  0  0  0  0  0  0  0  0  0  0  0
    0.1447    9.0713   27.2925 C   0  0  0  0  0  0  0  0  0  0  0  0
   -0.0562    7.7810   26.9475 N   0  0  0  0  0  0  0  0  0  0  0  0
    0.4413    7.4709   25.7367 C   0  0  0  0  0  0  0  0  0  0  0  0
    0.3478    6.2337   25.1624 N   0  0  0  0  0  0  0  0  0  0  0  0
    0.9547    6.2432   23.9324 C   0  0  0  0  0  0  0  0  0  0  0  0
    1.4433    7.5144   23.7171 C   0  0  0  0  0  0  0  0  0  0  0  0
    1.1224    8.3073   24.8583 C   0  0  0  0  0  0  0  0  0  0  0  0
   -0.0901    5.4522   25.5709 H   0  0  0  0  0  0  0  0  0  0  0  0
 24 25  2  0
 25 26  1  0
  1 26  1  0
  1  2  1  0
  2  3  2  0
  3  4  1  0
  4  5  2  0
  5  6  1  0
  6  7  2  0
  7  8  1  0
  8  9  2  0
  9 14  1  0
 14 15  2  0
 15 16  1  0
 16 17  2  0
 17 18  1  0
 18 19  2  0
 19 20  1  0
 20 21  2  0
 21 22  1  0
  9 10  1  0
 10 11  2  0
 11 12  1  0
 12 13  2  0
 25 28  1  0
 28 29  2  0
 29 30  1  0
 30 31  2  0
 31 32  1  0
 32 33  1  0
 33 34  1  0
 34 35  2  0
 35 36  1  0
 13  1  1  0
 36 28  1  0
  7  2  1  0
 13  8  1  0
 36 32  2  0
 22 14  1  0
 21 16  1  0
 26 27  1  0
 22 23  1  0
 33 37  1  0
M  END
> <minimizedAffinity>
-14.77256

> <CNNscore>
0.7369787097

> <CNNaffinity>
7.7508711815

> <CNN_VS>
5.7122268677

> <CNNaffinity_variance>
0.2245590240

$$$$



 37 43  0  0  0  0  0  0  0  0999 V2000
    3.3193    3.4678   28.4779 C   0  0  0  0  0  0  0  0  0  0  0  0
    2.0437    3.6247   27.6689 C   0  0  0  0  0  0  0  0  0  0  0  0
    1.2476    2.6162   27.1401 C   0  0  0  0  0  0  0  0  0  0  0  0
    0.0924    2.9810   26.4513 C   0  0  0  0  0  0  0  0  0  0  0  0
   -0.2554    4.3328   26.3125 C   0  0  0  0  0  0  0  0  0  0  0  0
    0.5489    5.3435   26.8547 C   0  0  0  0  0  0  0  0  0  0  0  0
    1.7101    4.9915   27.5268 C   0  0  0  0  0  0  0  0  0  0  0  0
    2.7240    5.7984   28.1960 C   0  0  0  0  0  0  0  0  0  0  0  0
    2.8895    7.1750   28.3410 C   0  0  0  0  0  0  0  0  0  0  0  0
    3.9828    7.6387   29.0976 C   0  0  0  0  0  0  0  0  0  0  0  0
    4.9036    6.7515   29.6772 C   0  0  0  0  0  0  0  0  0  0  0  0
    4.7567    5.3770   29.5125 C   0  0  0  0  0  0  0  0  0  0  0  0
    3.6734    4.9169   28.7744 C   0  0  0  0  0  0  0  0  0  0  0  0
    2.0072    8.1541   27.7286 C   0  0  0  0  0  0  0  0  0  0  0  0
    2.1601    8.7350   26.5541 N   0  0  0  0  0  0  0  0  0  0  0  0
    1.0686    9.5546   26.3967 C   0  0  0  0  0  0  0  0  0  0  0  0
    0.7266   10.3928   25.3371 C   0  0  0  0  0  0  0  0  0  0  0  0
   -0.4614   11.0921   25.4868 C   0  0  0  0  0  0  0  0  0  0  0  0
   -1.2794   11.0148   26.5658 N   0  0  0  0  0  0  0  0  0  0  0  0
   -0.9437   10.2010   27.5940 C   0  0  0  0  0  0  0  0  0  0  0  0
    0.2316    9.4754   27.5011 C   0  0  0  0  0  0  0  0  0  0  0  0
    0.8487    8.5813   28.3335 N   0  0  0  0  0  0  0  0  0  0  0  0
    0.5192    8.2932   29.2154 H   0  0  0  0  0  0  0  0  0  0  0  0
    4.1785    4.3088   25.9453 O   0  0  0  0  0  0  0  0  0  0  0  0
    4.7544    3.3752   26.4890 C   0  0  0  0  0  0  0  0  0  0  0  0
    4.3629    2.8417   27.6973 N   0  0  0  0  0  0  0  0  0  0  0  0
    4.7985    2.0251   28.0330 H   0  0  0  0  0  0  0  0  0  0  0  0
    5.9625    2.7684   25.8804 C   0  0  0  0  0  0  0  0  0  0  0  0
    6.6738    1.7446   26.5240 C   0  0  0  0  0  0  0  0  0  0  0  0
    7.8012    1.2261   25.9057 C   0  0  0  0  0  0  0  0  0  0  0  0
    8.2956    1.6199   24.7121 N   0  0  0  0  0  0  0  0  0  0  0  0
    7.5657    2.5869   24.1274 C   0  0  0  0  0  0  0  0  0  0  0  0
    7.8551    3.1366   22.9094 N   0  0  0  0  0  0  0  0  0  0  0  0
    6.9246    4.0948   22.5971 C   0  0  0  0  0  0  0  0  0  0  0  0
    6.0215    4.1553   23.6372 C   0  0  0  0  0  0  0  0  0  0  0  0
    6.4174    3.1992   24.6186 C   0  0  0  0  0  0  0  0  0  0  0  0
    8.6177    2.8824   22.3411 H   0  0  0  0  0  0  0  0  0  0  0  0
 24 25  2  0
 25 26  1  0
  1 26  1  0
  1  2  1  0
  2  3  2  0
  3  4  1  0
  4  5  2  0
  5  6  1  0
  6  7  2  0
  7  8  1  0
  8  9  2  0
  9 14  1  0
 14 15  2  0
 15 16  1  0
 16 17  2  0
 17 18  1  0
 18 19  2  0
 19 20  1  0
 20 21  2  0
 21 22  1  0
  9 10  1  0
 10 11  2  0
 11 12  1  0
 12 13  2  0
 25 28  1  0
 28 29  2  0
 29 30  1  0
 30 31  2  0
 31 32  1  0
 32 33  1  0
 33 34  1  0
 34 35  2  0
 35 36  1  0
 13  1  1  0
 36 28  1  0
  7  2  1  0
 13  8  1  0
 36 32  2  0
 22 14  1  0
 21 16  1  0
 26 27  1  0
 22 23  1  0
 33 37  1  0
M  END
> <minimizedAffinity>
-7.46539

> <CNNscore>
0.2903077006

> <CNNaffinity>
6.2678661346

> <CNN_VS>
1.8196097612

> <CNNaffinity_variance>
0.0393948220

$$$$



 37 43  0  0  0  0  0  0  0  0999 V2000
    3.7701    7.7151   25.8088 C   0  0  0  0  0  0  0  0  0  0  0  0
    3.9653    7.5256   24.3147 C   0  0  0  0  0  0  0  0  0  0  0  0
    4.3055    8.4923   23.3765 C   0  0  0  0  0  0  0  0  0  0  0  0
    4.4669    8.0959   22.0503 C   0  0  0  0  0  0  0  0  0  0  0  0
    4.3010    6.7518   21.6849 C   0  0  0  0  0  0  0  0  0  0  0  0
    3.9649    5.7819   22.6381 C   0  0  0  0  0  0  0  0  0  0  0  0
    3.7846    6.1693   23.9577 C   0  0  0  0  0  0  0  0  0  0  0  0
    3.4499    5.4053   25.1541 C   0  0  0  0  0  0  0  0  0  0  0  0
    3.1560    4.0586   25.3617 C   0  0  0  0  0  0  0  0  0  0  0  0
    2.9076    3.6260   26.6785 C   0  0  0  0  0  0  0  0  0  0  0  0
    2.9285    4.5196   27.7611 C   0  0  0  0  0  0  0  0  0  0  0  0
    3.1955    5.8701   27.5546 C   0  0  0  0  0  0  0  0  0  0  0  0
    3.4503    6.2974   26.2574 C   0  0  0  0  0  0  0  0  0  0  0  0
    3.0666    3.0858   24.2856 C   0  0  0  0  0  0  0  0  0  0  0  0
    1.9763    2.7074   23.6467 N   0  0  0  0  0  0  0  0  0  0  0  0
    2.3915    1.7996   22.7027 C   0  0  0  0  0  0  0  0  0  0  0  0
    1.6512    1.0941   21.7557 C   0  0  0  0  0  0  0  0  0  0  0  0
    2.3810    0.2476   20.9351 C   0  0  0  0  0  0  0  0  0  0  0  0
    3.7239    0.0687   20.9989 N   0  0  0  0  0  0  0  0  0  0  0  0
    4.4399    0.7541   21.9207 C   0  0  0  0  0  0  0  0  0  0  0  0
    3.7657    1.6165   22.7682 C   0  0  0  0  0  0  0  0  0  0  0  0
    4.1721    2.4423   23.7811 N   0  0  0  0  0  0  0  0  0  0  0  0
    5.0982    2.5563   24.0950 H   0  0  0  0  0  0  0  0  0  0  0  0
    1.2149    7.5101   24.6735 O   0  0  0  0  0  0  0  0  0  0  0  0
    1.4215    8.3677   25.5224 C   0  0  0  0  0  0  0  0  0  0  0  0
    2.6578    8.5961   26.0858 N   0  0  0  0  0  0  0  0  0  0  0  0
    2.7852    9.3678   26.6837 H   0  0  0  0  0  0  0  0  0  0  0  0
    0.3162    9.2123   26.0353 C   0  0  0  0  0  0  0  0  0  0  0  0
   -0.0997    9.1447   27.3734 C   0  0  0  0  0  0  0  0  0  0  0  0
   -1.1460    9.9545   27.7878 C   0  0  0  0  0  0  0  0  0  0  0  0
   -1.8228   10.8260   27.0090 N   0  0  0  0  0  0  0  0  0  0  0  0
   -1.3713   10.8685   25.7425 C   0  0  0  0  0  0  0  0  0  0  0  0
   -1.8836   11.6840   24.7720 N   0  0  0  0  0  0  0  0  0  0  0  0
   -1.2094   11.4875   23.5937 C   0  0  0  0  0  0  0  0  0  0  0  0
   -0.2451   10.5281   23.8188 C   0  0  0  0  0  0  0  0  0  0  0  0
   -0.3364   10.1257   25.1840 C   0  0  0  0  0  0  0  0  0  0  0  0
   -2.6260   12.3179   24.8998 H   0  0  0  0  0  0  0  0  0  0  0  0
 24 25  2  0
 25 26  1  0
  1 26  1  0
  1  2  1  0
  2  3  2  0
  3  4  1  0
  4  5  2  0
  5  6  1  0
  6  7  2  0
  7  8  1  0
  8  9  2  0
  9 14  1  0
 14 15  2  0
 15 16  1  0
 16 17  2  0
 17 18  1  0
 18 19  2  0
 19 20  1  0
 20 21  2  0
 21 22  1  0
  9 10  1  0
 10 11  2  0
 11 12  1  0
 12 13  2  0
 25 28  1  0
 28 29  2  0
 29 30  1  0
 30 31  2  0
 31 32  1  0
 32 33  1  0
 33 34  1  0
 34 35  2  0
 35 36  1  0
 13  1  1  0
 36 28  1  0
  7  2  1  0
 13  8  1  0
 36 32  2  0
 22 14  1  0
 21 16  1  0
 26 27  1  0
 22 23  1  0
 33 37  1  0
M  END
> <minimizedAffinity>
-7.33371

> <CNNscore>
0.2364060879

> <CNNaffinity>
6.5217804909

> <CNN_VS>
1.5417885780

> <CNNaffinity_variance>
0.2079635412

$$$$



 37 43  0  0  0  0  0  0  0  0999 V2000
    3.0687    9.3538   26.0309 C   0  0  0  0  0  0  0  0  0  0  0  0
    3.7211    8.4982   24.9592 C   0  0  0  0  0  0  0  0  0  0  0  0
    4.0395    8.8685   23.6584 C   0  0  0  0  0  0  0  0  0  0  0  0
    4.6690    7.9312   22.8416 C   0  0  0  0  0  0  0  0  0  0  0  0
    4.9805    6.6550   23.3333 C   0  0  0  0  0  0  0  0  0  0  0  0
    4.6624    6.2917   24.6483 C   0  0  0  0  0  0  0  0  0  0  0  0
    4.0198    7.2114   25.4638 C   0  0  0  0  0  0  0  0  0  0  0  0
    3.5791    7.1331   26.8518 C   0  0  0  0  0  0  0  0  0  0  0  0
    3.6117    6.1074   27.7953 C   0  0  0  0  0  0  0  0  0  0  0  0
    3.1274    6.3770   29.0898 C   0  0  0  0  0  0  0  0  0  0  0  0
    2.6010    7.6333   29.4298 C   0  0  0  0  0  0  0  0  0  0  0  0
    2.5424    8.6521   28.4830 C   0  0  0  0  0  0  0  0  0  0  0  0
    3.0284    8.3913   27.2079 C   0  0  0  0  0  0  0  0  0  0  0  0
    4.0944    4.7682   27.5024 C   0  0  0  0  0  0  0  0  0  0  0  0
    3.3983    3.7658   27.0015 N   0  0  0  0  0  0  0  0  0  0  0  0
    4.2824    2.7215   26.8766 C   0  0  0  0  0  0  0  0  0  0  0  0
    4.0763    1.4295   26.3964 C   0  0  0  0  0  0  0  0  0  0  0  0
    5.1920    0.6061   26.3963 C   0  0  0  0  0  0  0  0  0  0  0  0
    6.4270    0.9688   26.8237 N   0  0  0  0  0  0  0  0  0  0  0  0
    6.6236    2.2239   27.2909 C   0  0  0  0  0  0  0  0  0  0  0  0
    5.5462    3.0929   27.3141 C   0  0  0  0  0  0  0  0  0  0  0  0
    5.4019    4.3956   27.7077 N   0  0  0  0  0  0  0  0  0  0  0  0
    6.1133    4.9685   28.0753 H   0  0  0  0  0  0  0  0  0  0  0  0
    2.3650   11.7870   24.8292 O   0  0  0  0  0  0  0  0  0  0  0  0
    1.5004   10.9380   25.0039 C   0  0  0  0  0  0  0  0  0  0  0  0
    1.7294    9.7428   25.6497 N   0  0  0  0  0  0  0  0  0  0  0  0
    0.9727    9.1470   25.8540 H   0  0  0  0  0  0  0  0  0  0  0  0
    0.1253   11.1346   24.4857 C   0  0  0  0  0  0  0  0  0  0  0  0
   -0.9982   10.6841   25.1949 C   0  0  0  0  0  0  0  0  0  0  0  0
   -2.2566   10.8907   24.6508 C   0  0  0  0  0  0  0  0  0  0  0  0
   -2.5146   11.4998   23.4732 N   0  0  0  0  0  0  0  0  0  0  0  0
   -1.4067   11.9318   22.8444 C   0  0  0  0  0  0  0  0  0  0  0  0
   -1.4117   12.5918   21.6470 N   0  0  0  0  0  0  0  0  0  0  0  0
   -0.1263   12.8926   21.2746 C   0  0  0  0  0  0  0  0  0  0  0  0
    0.7158   12.4163   22.2569 C   0  0  0  0  0  0  0  0  0  0  0  0
   -0.0866   11.8027   23.2636 C   0  0  0  0  0  0  0  0  0  0  0  0
   -2.2180   12.8175   21.1291 H   0  0  0  0  0  0  0  0  0  0  0  0
 24 25  2  0
 25 26  1  0
  1 26  1  0
  1  2  1  0
  2  3  2  0
  3  4  1  0
  4  5  2  0
  5  6  1  0
  6  7  2  0
  7  8  1  0
  8  9  2  0
  9 14  1  0
 14 15  2  0
 15 16  1  0
 16 17  2  0
 17 18  1  0
 18 19  2  0
 19 20  1  0
 20 21  2  0
 21 22  1  0
  9 10  1  0
 10 11  2  0
 11 12  1  0
 12 13  2  0
 25 28  1  0
 28 29  2  0
 29 30  1  0
 30 31  2  0
 31 32  1  0
 32 33  1  0
 33 34  1  0
 34 35  2  0
 35 36  1  0
 13  1  1  0
 36 28  1  0
  7  2  1  0
 13  8  1  0
 36 32  2  0
 22 14  1  0
 21 16  1  0
 26 27  1  0
 22 23  1  0
 33 37  1  0
M  END
> <minimizedAffinity>
-7.68120

> <CNNscore>
0.2106502652

> <CNNaffinity>
6.4027543068

> <CNN_VS>
1.3487418890

> <CNNaffinity_variance>
0.2086833864

$$$$



 37 43  0  0  0  0  0  0  0  0999 V2000
    3.2557   10.0228   25.9946 C   0  0  0  0  0  0  0  0  0  0  0  0
    4.2970    9.9532   24.8914 C   0  0  0  0  0  0  0  0  0  0  0  0
    4.9005   11.0152   24.2293 C   0  0  0  0  0  0  0  0  0  0  0  0
    5.8625   10.7283   23.2627 C   0  0  0  0  0  0  0  0  0  0  0  0
    6.2144    9.3997   22.9825 C   0  0  0  0  0  0  0  0  0  0  0  0
    5.6063    8.3347   23.6595 C   0  0  0  0  0  0  0  0  0  0  0  0
    4.6348    8.6090   24.6108 C   0  0  0  0  0  0  0  0  0  0  0  0
    3.8477    7.7334   25.4713 C   0  0  0  0  0  0  0  0  0  0  0  0
    3.7734    6.3465   25.5906 C   0  0  0  0  0  0  0  0  0  0  0  0
    2.9184    5.8067   26.5706 C   0  0  0  0  0  0  0  0  0  0  0  0
    2.1373    6.6298   27.3974 C   0  0  0  0  0  0  0  0  0  0  0  0
    2.1887    8.0145   27.2635 C   0  0  0  0  0  0  0  0  0  0  0  0
    3.0388    8.5495   26.3037 C   0  0  0  0  0  0  0  0  0  0  0  0
    4.5124    5.4310   24.7374 C   0  0  0  0  0  0  0  0  0  0  0  0
    5.7150    4.9361   24.9587 N   0  0  0  0  0  0  0  0  0  0  0  0
    5.9786    4.1041   23.8975 C   0  0  0  0  0  0  0  0  0  0  0  0
    7.1038    3.3260   23.6307 C   0  0  0  0  0  0  0  0  0  0  0  0
    7.0541    2.5836   22.4607 C   0  0  0  0  0  0  0  0  0  0  0  0
    6.0146    2.5724   21.5895 N   0  0  0  0  0  0  0  0  0  0  0  0
    4.9239    3.3304   21.8507 C   0  0  0  0  0  0  0  0  0  0  0  0
    4.9149    4.0928   23.0061 C   0  0  0  0  0  0  0  0  0  0  0  0
    3.9967    4.9434   23.5597 N   0  0  0  0  0  0  0  0  0  0  0  0
    3.1168    5.1679   23.1795 H   0  0  0  0  0  0  0  0  0  0  0  0
    1.8576    9.2652   23.6856 O   0  0  0  0  0  0  0  0  0  0  0  0
    1.3863   10.1341   24.4081 C   0  0  0  0  0  0  0  0  0  0  0  0
    2.0295   10.6263   25.5225 N   0  0  0  0  0  0  0  0  0  0  0  0
    1.6501   11.3974   26.0028 H   0  0  0  0  0  0  0  0  0  0  0  0
    0.0423   10.6998   24.1402 C   0  0  0  0  0  0  0  0  0  0  0  0
   -1.0738   10.3372   24.9090 C   0  0  0  0  0  0  0  0  0  0  0  0
   -2.3049   10.8952   24.6008 C   0  0  0  0  0  0  0  0  0  0  0  0
   -2.5423   11.7779   23.6064 N   0  0  0  0  0  0  0  0  0  0  0  0
   -1.4371   12.1088   22.9145 C   0  0  0  0  0  0  0  0  0  0  0  0
   -1.4199   12.9952   21.8736 N   0  0  0  0  0  0  0  0  0  0  0  0
   -0.1451   13.1116   21.3810 C   0  0  0  0  0  0  0  0  0  0  0  0
    0.6681   12.2837   22.1256 C   0  0  0  0  0  0  0  0  0  0  0  0
   -0.1419   11.6394   23.1068 C   0  0  0  0  0  0  0  0  0  0  0  0
   -2.2057   13.4779   21.5289 H   0  0  0  0  0  0  0  0  0  0  0  0
 24 25  2  0
 25 26  1  0
  1 26  1  0
  1  2  1  0
  2  3  2  0
  3  4  1  0
  4  5  2  0
  5  6  1  0
  6  7  2  0
  7  8  1  0
  8  9  2  0
  9 14  1  0
 14 15  2  0
 15 16  1  0
 16 17  2  0
 17 18  1  0
 18 19  2  0
 19 20  1  0
 20 21  2  0
 21 22  1  0
  9 10  1  0
 10 11  2  0
 11 12  1  0
 12 13  2  0
 25 28  1  0
 28 29  2  0
 29 30  1  0
 30 31  2  0
 31 32  1  0
 32 33  1  0
 33 34  1  0
 34 35  2  0
 35 36  1  0
 13  1  1  0
 36 28  1  0
  7  2  1  0
 13  8  1  0
 36 32  2  0
 22 14  1  0
 21 16  1  0
 26 27  1  0
 22 23  1  0
 33 37  1  0
M  END
> <minimizedAffinity>
-7.43463

> <CNNscore>
0.1942387968

> <CNNaffinity>
6.7362976074

> <CNN_VS>
1.3084503412

> <CNNaffinity_variance>
0.2058925182

$$$$



 37 43  0  0  0  0  0  0  0  0999 V2000
    4.6745   10.5044   23.4635 C   0  0  0  0  0  0  0  0  0  0  0  0
    3.1746   10.5275   23.7005 C   0  0  0  0  0  0  0  0  0  0  0  0
    2.3058   11.5966   23.5194 C   0  0  0  0  0  0  0  0  0  0  0  0
    0.9496   11.3930   23.7667 C   0  0  0  0  0  0  0  0  0  0  0  0
    0.4824   10.1348   24.1745 C   0  0  0  0  0  0  0  0  0  0  0  0
    1.3640    9.0600   24.3480 C   0  0  0  0  0  0  0  0  0  0  0  0
    2.7182    9.2571   24.1216 C   0  0  0  0  0  0  0  0  0  0  0  0
    3.8561    8.3489   24.2050 C   0  0  0  0  0  0  0  0  0  0  0  0
    3.9699    7.0114   24.5812 C   0  0  0  0  0  0  0  0  0  0  0  0
    5.2391    6.4054   24.5126 C   0  0  0  0  0  0  0  0  0  0  0  0
    6.3737    7.1224   24.1008 C   0  0  0  0  0  0  0  0  0  0  0  0
    6.2690    8.4654   23.7497 C   0  0  0  0  0  0  0  0  0  0  0  0
    5.0161    9.0628   23.8074 C   0  0  0  0  0  0  0  0  0  0  0  0
    2.8510    6.2204   25.0657 C   0  0  0  0  0  0  0  0  0  0  0  0
    2.4897    5.0208   24.6527 N   0  0  0  0  0  0  0  0  0  0  0  0
    1.4035    4.6724   25.4186 C   0  0  0  0  0  0  0  0  0  0  0  0
    0.6353    3.5096   25.4024 C   0  0  0  0  0  0  0  0  0  0  0  0
   -0.4034    3.4660   26.3199 C   0  0  0  0  0  0  0  0  0  0  0  0
   -0.7080    4.4534   27.1984 N   0  0  0  0  0  0  0  0  0  0  0  0
    0.0390    5.5821   27.2106 C   0  0  0  0  0  0  0  0  0  0  0  0
    1.0919    5.6831   26.3174 C   0  0  0  0  0  0  0  0  0  0  0  0
    2.0235    6.6556   26.0739 N   0  0  0  0  0  0  0  0  0  0  0  0
    2.0899    7.5197   26.5410 H   0  0  0  0  0  0  0  0  0  0  0  0
    7.1363   11.7395   22.9402 O   0  0  0  0  0  0  0  0  0  0  0  0
    6.5386   12.0179   23.9717 C   0  0  0  0  0  0  0  0  0  0  0  0
    5.3613   11.4130   24.3540 N   0  0  0  0  0  0  0  0  0  0  0  0
    4.9835   11.6016   25.2433 H   0  0  0  0  0  0  0  0  0  0  0  0
    7.0407   13.0769   24.8798 C   0  0  0  0  0  0  0  0  0  0  0  0
    8.4009   13.1791   25.2078 C   0  0  0  0  0  0  0  0  0  0  0  0
    8.8045   14.1865   26.0705 C   0  0  0  0  0  0  0  0  0  0  0  0
    7.9952   15.1046   26.6418 N   0  0  0  0  0  0  0  0  0  0  0  0
    6.7064   14.9767   26.2782 C   0  0  0  0  0  0  0  0  0  0  0  0
    5.7019   15.7973   26.7105 N   0  0  0  0  0  0  0  0  0  0  0  0
    4.5082   15.4022   26.1623 C   0  0  0  0  0  0  0  0  0  0  0  0
    4.7578   14.3080   25.3614 C   0  0  0  0  0  0  0  0  0  0  0  0
    6.1545   14.0266   25.4252 C   0  0  0  0  0  0  0  0  0  0  0  0
    5.8180   16.5584   27.3240 H   0  0  0  0  0  0  0  0  0  0  0  0
 24 25  2  0
 25 26  1  0
  1 26  1  0
  1  2  1  0
  2  3  2  0
  3  4  1  0
  4  5  2  0
  5  6  1  0
  6  7  2  0
  7  8  1  0
  8  9  2  0
  9 14  1  0
 14 15  2  0
 15 16  1  0
 16 17  2  0
 17 18  1  0
 18 19  2  0
 19 20  1  0
 20 21  2  0
 21 22  1  0
  9 10  1  0
 10 11  2  0
 11 12  1  0
 12 13  2  0
 25 28  1  0
 28 29  2  0
 29 30  1  0
 30 31  2  0
 31 32  1  0
 32 33  1  0
 33 34  1  0
 34 35  2  0
 35 36  1  0
 13  1  1  0
 36 28  1  0
  7  2  1  0
 13  8  1  0
 36 32  2  0
 22 14  1  0
 21 16  1  0
 26 27  1  0
 22 23  1  0
 33 37  1  0
M  END
> <minimizedAffinity>
-10.78000

> <CNNscore>
0.1854537427

> <CNNaffinity>
6.7692260742

> <CNN_VS>
1.2553783655

> <CNNaffinity_variance>
0.4931694567

$$$$



 37 43  0  0  0  0  0  0  0  0999 V2000
    4.1612   10.7182   23.5441 C   0  0  0  0  0  0  0  0  0  0  0  0
    2.6743   10.5725   23.8165 C   0  0  0  0  0  0  0  0  0  0  0  0
    1.6958   11.5540   23.7173 C   0  0  0  0  0  0  0  0  0  0  0  0
    0.3752   11.1975   23.9836 C   0  0  0  0  0  0  0  0  0  0  0  0
    0.0512    9.8771   24.3288 C   0  0  0  0  0  0  0  0  0  0  0  0
    1.0427    8.8917   24.4197 C   0  0  0  0  0  0  0  0  0  0  0  0
    2.3626    9.2404   24.1740 C   0  0  0  0  0  0  0  0  0  0  0  0
    3.5893    8.4519   24.1788 C   0  0  0  0  0  0  0  0  0  0  0  0
    3.8501    7.1148   24.4746 C   0  0  0  0  0  0  0  0  0  0  0  0
    5.1721    6.6485   24.3420 C   0  0  0  0  0  0  0  0  0  0  0  0
    6.2151    7.5009   23.9463 C   0  0  0  0  0  0  0  0  0  0  0  0
    5.9636    8.8430   23.6756 C   0  0  0  0  0  0  0  0  0  0  0  0
    4.6582    9.3031   23.7965 C   0  0  0  0  0  0  0  0  0  0  0  0
    2.8324    6.1866   24.9382 C   0  0  0  0  0  0  0  0  0  0  0  0
    2.0522    6.3265   25.9926 N   0  0  0  0  0  0  0  0  0  0  0  0
    1.2408    5.2177   26.0078 C   0  0  0  0  0  0  0  0  0  0  0  0
    0.2315    4.8618   26.9006 C   0  0  0  0  0  0  0  0  0  0  0  0
   -0.4119    3.6637   26.6297 C   0  0  0  0  0  0  0  0  0  0  0  0
   -0.1256    2.8450   25.5870 N   0  0  0  0  0  0  0  0  0  0  0  0
    0.8562    3.1927   24.7225 C   0  0  0  0  0  0  0  0  0  0  0  0
    1.5340    4.3799   24.9408 C   0  0  0  0  0  0  0  0  0  0  0  0
    2.5482    5.0151   24.2767 N   0  0  0  0  0  0  0  0  0  0  0  0
    2.9977    4.6888   23.4639 H   0  0  0  0  0  0  0  0  0  0  0  0
    6.6293   11.9928   23.1649 O   0  0  0  0  0  0  0  0  0  0  0  0
    5.9650   12.2660   24.1563 C   0  0  0  0  0  0  0  0  0  0  0  0
    4.7768   11.6429   24.4695 N   0  0  0  0  0  0  0  0  0  0  0  0
    4.3422   11.8293   25.3330 H   0  0  0  0  0  0  0  0  0  0  0  0
    6.3927   13.3379   25.0871 C   0  0  0  0  0  0  0  0  0  0  0  0
    5.4651   14.2012   25.6890 C   0  0  0  0  0  0  0  0  0  0  0  0
    5.9309   15.1894   26.5426 C   0  0  0  0  0  0  0  0  0  0  0  0
    7.2251   15.4087   26.8608 N   0  0  0  0  0  0  0  0  0  0  0  0
    8.0706   14.5414   26.2756 C   0  0  0  0  0  0  0  0  0  0  0  0
    9.4258   14.5502   26.4562 N   0  0  0  0  0  0  0  0  0  0  0  0
   10.0009   13.5445   25.7218 C   0  0  0  0  0  0  0  0  0  0  0  0
    8.9903   12.8790   25.0610 C   0  0  0  0  0  0  0  0  0  0  0  0
    7.7551   13.5030   25.4054 C   0  0  0  0  0  0  0  0  0  0  0  0
    9.9159   15.1840   27.0283 H   0  0  0  0  0  0  0  0  0  0  0  0
 24 25  2  0
 25 26  1  0
  1 26  1  0
  1  2  1  0
  2  3  2  0
  3  4  1  0
  4  5  2  0
  5  6  1  0
  6  7  2  0
  7  8  1  0
  8  9  2  0
  9 14  1  0
 14 15  2  0
 15 16  1  0
 16 17  2  0
 17 18  1  0
 18 19  2  0
 19 20  1  0
 20 21  2  0
 21 22  1  0
  9 10  1  0
 10 11  2  0
 11 12  1  0
 12 13  2  0
 25 28  1  0
 28 29  2  0
 29 30  1  0
 30 31  2  0
 31 32  1  0
 32 33  1  0
 33 34  1  0
 34 35  2  0
 35 36  1  0
 13  1  1  0
 36 28  1  0
  7  2  1  0
 13  8  1  0
 36 32  2  0
 22 14  1  0
 21 16  1  0
 26 27  1  0
 22 23  1  0
 33 37  1  0
M  END
> <minimizedAffinity>
-10.91739

> <CNNscore>
0.1846908331

> <CNNaffinity>
6.6923699379

> <CNN_VS>
1.2360193729

> <CNNaffinity_variance>
0.4593728483

$$$$
