


 19 20  0  0  0  0  0  0  0  0999 V2000
   10.6390    4.4431   12.5306 C   0  0  0  0  0  0  0  0  0  0  0  0
    9.4285    4.9919   12.5025 N   0  0  0  0  0  0  0  0  0  0  0  0
    8.4596    4.2367   12.9851 C   0  0  0  0  0  0  0  0  0  0  0  0
    7.1829    4.7581   12.9776 N   0  0  0  0  0  0  0  0  0  0  0  0
    8.6212    3.0303   13.5008 N   0  0  0  0  0  0  0  0  0  0  0  0
    9.8747    2.5765   13.4926 C   0  0  0  0  0  0  0  0  0  0  0  0
   10.9196    3.2335   13.0008 N   0  0  0  0  0  0  0  0  0  0  0  0
    7.0190    5.6535   12.6027 H   0  0  0  0  0  0  0  0  0  0  0  0
    6.4353    4.2348   13.3472 H   0  0  0  0  0  0  0  0  0  0  0  0
   10.0941    1.2164   14.0019 C   0  0  0  0  0  0  0  0  0  0  0  0
   10.8984    1.0354   15.1504 C   0  0  0  0  0  0  0  0  0  0  0  0
   11.1268   -0.2330   15.6882 C   0  0  0  0  0  0  0  0  0  0  0  0
   10.5575   -1.3416   15.0810 C   0  0  0  0  0  0  0  0  0  0  0  0
   10.7753   -2.5593   15.5932 F   0  0  0  0  0  0  0  0  0  0  0  0
    9.7722   -1.2078   13.9453 C   0  0  0  0  0  0  0  0  0  0  0  0
    9.5434    0.0635   13.4049 C   0  0  0  0  0  0  0  0  0  0  0  0
    8.6048    0.1242   11.9495 Cl  0  0  0  0  0  0  0  0  0  0  0  0
   13.3788    4.6543   12.6755 C   0  0  0  0  0  0  0  0  0  0  0  0
   11.9604    5.4260   11.8589 S   0  0  0  0  0  0  0  0  0  0  0  0
 18 19  1  0
 19  1  1  0
  1  2  2  0
  2  3  1  0
  3  4  1  0
  3  5  2  0
  5  6  1  0
  6 10  1  0
 10 11  2  0
 11 12  1  0
 12 13  2  0
 13 14  1  0
 13 15  1  0
 15 16  2  0
 16 17  1  0
  6  7  2  0
  7  1  1  0
 16 10  1  0
  4  8  1  0
  4  9  1  0
M  END
> <minimizedAffinity>
-7.32260

> <CNNscore>
0.9434291124

> <CNNaffinity>
6.1141529083

> <CNN_VS>
5.7682700157

> <CNNaffinity_variance>
0.2116672248

$$$$



 19 20  0  0  0  0  0  0  0  0999 V2000
    8.7454    1.9093   12.8671 C   0  0  0  0  0  0  0  0  0  0  0  0
    7.6719    2.6460   12.5984 N   0  0  0  0  0  0  0  0  0  0  0  0
    7.7263    3.8929   13.0276 C   0  0  0  0  0  0  0  0  0  0  0  0
    6.6368    4.7003   12.7765 N   0  0  0  0  0  0  0  0  0  0  0  0
    8.7550    4.4367   13.6551 N   0  0  0  0  0  0  0  0  0  0  0  0
    9.7852    3.6172   13.8649 C   0  0  0  0  0  0  0  0  0  0  0  0
    9.8255    2.3375   13.5096 N   0  0  0  0  0  0  0  0  0  0  0  0
    5.8499    4.3345   12.3115 H   0  0  0  0  0  0  0  0  0  0  0  0
    6.6460    5.6423   13.0623 H   0  0  0  0  0  0  0  0  0  0  0  0
   10.9277    4.1609   14.6108 C   0  0  0  0  0  0  0  0  0  0  0  0
   10.9989    3.9492   16.0069 C   0  0  0  0  0  0  0  0  0  0  0  0
   12.0704    4.4284   16.7635 C   0  0  0  0  0  0  0  0  0  0  0  0
   13.0857    5.1323   16.1346 C   0  0  0  0  0  0  0  0  0  0  0  0
   14.1141    5.5942   16.8570 F   0  0  0  0  0  0  0  0  0  0  0  0
   13.0471    5.3720   14.7688 C   0  0  0  0  0  0  0  0  0  0  0  0
   11.9727    4.8927   14.0097 C   0  0  0  0  0  0  0  0  0  0  0  0
   11.9792    5.2972   12.3246 Cl  0  0  0  0  0  0  0  0  0  0  0  0
    9.4515   -0.5991   13.7511 C   0  0  0  0  0  0  0  0  0  0  0  0
    8.6883    0.2157   12.3271 S   0  0  0  0  0  0  0  0  0  0  0  0
 18 19  1  0
 19  1  1  0
  1  2  2  0
  2  3  1  0
  3  4  1  0
  3  5  2  0
  5  6  1  0
  6 10  1  0
 10 11  2  0
 11 12  1  0
 12 13  2  0
 13 14  1  0
 13 15  1  0
 15 16  2  0
 16 17  1  0
  6  7  2  0
  7  1  1  0
 16 10  1  0
  4  8  1  0
  4  9  1  0
M  END
> <minimizedAffinity>
-6.73110

> <CNNscore>
0.9174747467

> <CNNaffinity>
5.6453533173

> <CNN_VS>
5.1794691086

> <CNNaffinity_variance>
0.0832411647

$$$$



 19 20  0  0  0  0  0  0  0  0999 V2000
   10.3187    4.4827   12.5291 C   0  0  0  0  0  0  0  0  0  0  0  0
    9.1012    5.0166   12.5448 N   0  0  0  0  0  0  0  0  0  0  0  0
    8.1656    4.2621   13.0901 C   0  0  0  0  0  0  0  0  0  0  0  0
    6.8834    4.7682   13.1301 N   0  0  0  0  0  0  0  0  0  0  0  0
    8.3665    3.0705   13.6262 N   0  0  0  0  0  0  0  0  0  0  0  0
    9.6239    2.6314   13.5700 C   0  0  0  0  0  0  0  0  0  0  0  0
   10.6363    3.2884   13.0142 N   0  0  0  0  0  0  0  0  0  0  0  0
    6.6908    5.6523   12.7421 H   0  0  0  0  0  0  0  0  0  0  0  0
    6.1606    4.2454   13.5466 H   0  0  0  0  0  0  0  0  0  0  0  0
    9.8842    1.2867   14.1006 C   0  0  0  0  0  0  0  0  0  0  0  0
    9.4078    0.1634   13.3864 C   0  0  0  0  0  0  0  0  0  0  0  0
    9.6409   -1.1385   13.8349 C   0  0  0  0  0  0  0  0  0  0  0  0
   10.3506   -1.3362   15.0092 C   0  0  0  0  0  0  0  0  0  0  0  0
   10.5750   -2.5829   15.4428 F   0  0  0  0  0  0  0  0  0  0  0  0
   10.8244   -0.2603   15.7457 C   0  0  0  0  0  0  0  0  0  0  0  0
   10.5904    1.0453   15.2972 C   0  0  0  0  0  0  0  0  0  0  0  0
   11.1634    2.3242   16.3166 Cl  0  0  0  0  0  0  0  0  0  0  0  0
   13.0336    4.8935   12.7100 C   0  0  0  0  0  0  0  0  0  0  0  0
   11.5947    5.4643   11.7731 S   0  0  0  0  0  0  0  0  0  0  0  0
 18 19  1  0
 19  1  1  0
  1  2  2  0
  2  3  1  0
  3  4  1  0
  3  5  2  0
  5  6  1  0
  6 10  1  0
 10 11  2  0
 11 12  1  0
 12 13  2  0
 13 14  1  0
 13 15  1  0
 15 16  2  0
 16 17  1  0
  6  7  2  0
  7  1  1  0
 16 10  1  0
  4  8  1  0
  4  9  1  0
M  END
> <minimizedAffinity>
-7.24599

> <CNNscore>
0.8444046378

> <CNNaffinity>
5.7310595512

> <CNN_VS>
4.8393330574

> <CNNaffinity_variance>
0.0824612454

$$$$



 19 20  0  0  0  0  0  0  0  0999 V2000
   12.0111    4.9008   12.4755 C   0  0  0  0  0  0  0  0  0  0  0  0
   11.7303    6.0463   11.8618 N   0  0  0  0  0  0  0  0  0  0  0  0
   10.4482    6.2594   11.6325 C   0  0  0  0  0  0  0  0  0  0  0  0
   10.1022    7.4329   10.9961 N   0  0  0  0  0  0  0  0  0  0  0  0
    9.4670    5.4487   11.9899 N   0  0  0  0  0  0  0  0  0  0  0  0
    9.8538    4.3336   12.6094 C   0  0  0  0  0  0  0  0  0  0  0  0
   11.1152    3.9995   12.8599 N   0  0  0  0  0  0  0  0  0  0  0  0
   10.8025    8.0645   10.7133 H   0  0  0  0  0  0  0  0  0  0  0  0
    9.1549    7.6390   10.8245 H   0  0  0  0  0  0  0  0  0  0  0  0
    8.8025    3.3745   12.9730 C   0  0  0  0  0  0  0  0  0  0  0  0
    7.4783    3.8399   13.1427 C   0  0  0  0  0  0  0  0  0  0  0  0
    6.4361    2.9703   13.4713 C   0  0  0  0  0  0  0  0  0  0  0  0
    6.7045    1.6208   13.6406 C   0  0  0  0  0  0  0  0  0  0  0  0
    5.7081    0.7843   13.9568 F   0  0  0  0  0  0  0  0  0  0  0  0
    7.9924    1.1262   13.4951 C   0  0  0  0  0  0  0  0  0  0  0  0
    9.0380    1.9976   13.1665 C   0  0  0  0  0  0  0  0  0  0  0  0
   10.6211    1.2993   13.0704 Cl  0  0  0  0  0  0  0  0  0  0  0  0
   13.6005    3.2189   13.9644 C   0  0  0  0  0  0  0  0  0  0  0  0
   13.7340    4.5724   12.7710 S   0  0  0  0  0  0  0  0  0  0  0  0
 18 19  1  0
 19  1  1  0
  1  2  2  0
  2  3  1  0
  3  4  1  0
  3  5  2  0
  5  6  1  0
  6 10  1  0
 10 11  2  0
 11 12  1  0
 12 13  2  0
 13 14  1  0
 13 15  1  0
 15 16  2  0
 16 17  1  0
  6  7  2  0
  7  1  1  0
 16 10  1  0
  4  8  1  0
  4  9  1  0
M  END
> <minimizedAffinity>
-6.09653

> <CNNscore>
0.8387622237

> <CNNaffinity>
5.8330035210

> <CNN_VS>
4.8925027847

> <CNNaffinity_variance>
0.0338444002

$$$$



 19 20  0  0  0  0  0  0  0  0999 V2000
    8.6547    2.5014   13.3077 C   0  0  0  0  0  0  0  0  0  0  0  0
    8.3538    3.6777   12.7662 N   0  0  0  0  0  0  0  0  0  0  0  0
    9.3117    4.5837   12.8264 C   0  0  0  0  0  0  0  0  0  0  0  0
    9.0506    5.8229   12.2806 N   0  0  0  0  0  0  0  0  0  0  0  0
   10.5121    4.3875   13.3445 N   0  0  0  0  0  0  0  0  0  0  0  0
   10.7164    3.1711   13.8501 C   0  0  0  0  0  0  0  0  0  0  0  0
    9.8147    2.1956   13.8764 N   0  0  0  0  0  0  0  0  0  0  0  0
    8.1691    6.0104   11.8844 H   0  0  0  0  0  0  0  0  0  0  0  0
    9.7458    6.5200   12.2871 H   0  0  0  0  0  0  0  0  0  0  0  0
   12.0157    2.9251   14.4894 C   0  0  0  0  0  0  0  0  0  0  0  0
   12.7039    1.7235   14.2045 C   0  0  0  0  0  0  0  0  0  0  0  0
   13.9499    1.4449   14.7703 C   0  0  0  0  0  0  0  0  0  0  0  0
   14.5246    2.3633   15.6351 C   0  0  0  0  0  0  0  0  0  0  0  0
   15.7186    2.0991   16.1803 F   0  0  0  0  0  0  0  0  0  0  0  0
   13.8762    3.5486   15.9501 C   0  0  0  0  0  0  0  0  0  0  0  0
   12.6265    3.8282   15.3840 C   0  0  0  0  0  0  0  0  0  0  0  0
   11.8653    5.3015   15.8872 Cl  0  0  0  0  0  0  0  0  0  0  0  0
    7.7768    0.4378   11.7130 C   0  0  0  0  0  0  0  0  0  0  0  0
    7.3720    1.2699   13.2680 S   0  0  0  0  0  0  0  0  0  0  0  0
 18 19  1  0
 19  1  1  0
  1  2  2  0
  2  3  1  0
  3  4  1  0
  3  5  2  0
  5  6  1  0
  6 10  1  0
 10 11  2  0
 11 12  1  0
 12 13  2  0
 13 14  1  0
 13 15  1  0
 15 16  2  0
 16 17  1  0
  6  7  2  0
  7  1  1  0
 16 10  1  0
  4  8  1  0
  4  9  1  0
M  END
> <minimizedAffinity>
-5.47429

> <CNNscore>
0.8002632260

> <CNNaffinity>
5.5474872589

> <CNN_VS>
4.4394502640

> <CNNaffinity_variance>
0.0772917941

$$$$



 19 20  0  0  0  0  0  0  0  0999 V2000
    8.2891    2.5899   13.3945 C   0  0  0  0  0  0  0  0  0  0  0  0
    8.6859    3.6391   12.6811 N   0  0  0  0  0  0  0  0  0  0  0  0
    9.9929    3.7612   12.5437 C   0  0  0  0  0  0  0  0  0  0  0  0
   10.4583    4.8346   11.8136 N   0  0  0  0  0  0  0  0  0  0  0  0
   10.8901    2.9196   13.0278 N   0  0  0  0  0  0  0  0  0  0  0  0
   10.3883    1.8950   13.7172 C   0  0  0  0  0  0  0  0  0  0  0  0
    9.0957    1.6926   13.9487 N   0  0  0  0  0  0  0  0  0  0  0  0
    9.8233    5.4851   11.4353 H   0  0  0  0  0  0  0  0  0  0  0  0
   11.4254    4.9505   11.6706 H   0  0  0  0  0  0  0  0  0  0  0  0
   11.3502    0.9657   14.3242 C   0  0  0  0  0  0  0  0  0  0  0  0
   12.5857    1.4672   14.7942 C   0  0  0  0  0  0  0  0  0  0  0  0
   13.5304    0.6326   15.3953 C   0  0  0  0  0  0  0  0  0  0  0  0
   13.2549   -0.7192   15.5307 C   0  0  0  0  0  0  0  0  0  0  0  0
   14.1588   -1.5226   16.1055 F   0  0  0  0  0  0  0  0  0  0  0  0
   12.0596   -1.2528   15.0716 C   0  0  0  0  0  0  0  0  0  0  0  0
   11.1123   -0.4169   14.4679 C   0  0  0  0  0  0  0  0  0  0  0  0
    9.6791   -1.1843   13.8679 Cl  0  0  0  0  0  0  0  0  0  0  0  0
    5.9915    4.0934   13.2134 C   0  0  0  0  0  0  0  0  0  0  0  0
    6.5337    2.4161   13.6220 S   0  0  0  0  0  0  0  0  0  0  0  0
 18 19  1  0
 19  1  1  0
  1  2  2  0
  2  3  1  0
  3  4  1  0
  3  5  2  0
  5  6  1  0
  6 10  1  0
 10 11  2  0
 11 12  1  0
 12 13  2  0
 13 14  1  0
 13 15  1  0
 15 16  2  0
 16 17  1  0
  6  7  2  0
  7  1  1  0
 16 10  1  0
  4  8  1  0
  4  9  1  0
M  END
> <minimizedAffinity>
-5.89345

> <CNNscore>
0.7953639030

> <CNNaffinity>
5.5440444946

> <CNN_VS>
4.4095330238

> <CNNaffinity_variance>
0.0584039837

$$$$



 19 20  0  0  0  0  0  0  0  0999 V2000
    9.9498    4.1842   13.1112 C   0  0  0  0  0  0  0  0  0  0  0  0
   11.1185    4.7718   12.8742 N   0  0  0  0  0  0  0  0  0  0  0  0
   12.1750    3.9923   13.0086 C   0  0  0  0  0  0  0  0  0  0  0  0
   13.4132    4.5532   12.7760 N   0  0  0  0  0  0  0  0  0  0  0  0
   12.1376    2.7085   13.3218 N   0  0  0  0  0  0  0  0  0  0  0  0
   10.9172    2.2132   13.5273 C   0  0  0  0  0  0  0  0  0  0  0  0
    9.7893    2.9119   13.4551 N   0  0  0  0  0  0  0  0  0  0  0  0
   13.4854    5.5062   12.5400 H   0  0  0  0  0  0  0  0  0  0  0  0
   14.2250    4.0005   12.8460 H   0  0  0  0  0  0  0  0  0  0  0  0
   10.8297    0.8049   13.9353 C   0  0  0  0  0  0  0  0  0  0  0  0
   11.8070    0.2832   14.8135 C   0  0  0  0  0  0  0  0  0  0  0  0
   11.7635   -1.0433   15.2479 C   0  0  0  0  0  0  0  0  0  0  0  0
   10.7430   -1.8705   14.8053 C   0  0  0  0  0  0  0  0  0  0  0  0
   10.6987   -3.1433   15.2187 F   0  0  0  0  0  0  0  0  0  0  0  0
    9.7717   -1.4006   13.9334 C   0  0  0  0  0  0  0  0  0  0  0  0
    9.8151   -0.0710   13.4967 C   0  0  0  0  0  0  0  0  0  0  0  0
    8.5982    0.4061   12.3589 Cl  0  0  0  0  0  0  0  0  0  0  0  0
    7.2065    3.9822   13.1864 C   0  0  0  0  0  0  0  0  0  0  0  0
    8.5098    5.2181   12.9670 S   0  0  0  0  0  0  0  0  0  0  0  0
 18 19  1  0
 19  1  1  0
  1  2  2  0
  2  3  1  0
  3  4  1  0
  3  5  2  0
  5  6  1  0
  6 10  1  0
 10 11  2  0
 11 12  1  0
 12 13  2  0
 13 14  1  0
 13 15  1  0
 15 16  2  0
 16 17  1  0
  6  7  2  0
  7  1  1  0
 16 10  1  0
  4  8  1  0
  4  9  1  0
M  END
> <minimizedAffinity>
-6.48905

> <CNNscore>
0.7925547361

> <CNNaffinity>
5.9515304565

> <CNN_VS>
4.7169137001

> <CNNaffinity_variance>
0.1107276082

$$$$



 19 20  0  0  0  0  0  0  0  0999 V2000
    9.1966    2.2338   13.6267 C   0  0  0  0  0  0  0  0  0  0  0  0
    8.6152    3.1767   12.8916 N   0  0  0  0  0  0  0  0  0  0  0  0
    9.0550    4.4029   13.1032 C   0  0  0  0  0  0  0  0  0  0  0  0
    8.4834    5.4196   12.3675 N   0  0  0  0  0  0  0  0  0  0  0  0
   10.0201    4.7296   13.9455 N   0  0  0  0  0  0  0  0  0  0  0  0
   10.5451    3.7099   14.6249 C   0  0  0  0  0  0  0  0  0  0  0  0
   10.1569    2.4436   14.5193 N   0  0  0  0  0  0  0  0  0  0  0  0
    7.7614    5.2193   11.7288 H   0  0  0  0  0  0  0  0  0  0  0  0
    8.7973    6.3458   12.4809 H   0  0  0  0  0  0  0  0  0  0  0  0
   11.5805    4.0322   15.6156 C   0  0  0  0  0  0  0  0  0  0  0  0
   12.2401    5.2802   15.5374 C   0  0  0  0  0  0  0  0  0  0  0  0
   13.2200    5.6465   16.4625 C   0  0  0  0  0  0  0  0  0  0  0  0
   13.5590    4.7661   17.4782 C   0  0  0  0  0  0  0  0  0  0  0  0
   14.4989    5.1133   18.3663 F   0  0  0  0  0  0  0  0  0  0  0  0
   12.9442    3.5269   17.5825 C   0  0  0  0  0  0  0  0  0  0  0  0
   11.9622    3.1586   16.6549 C   0  0  0  0  0  0  0  0  0  0  0  0
   11.2981    1.5673   16.8272 Cl  0  0  0  0  0  0  0  0  0  0  0  0
    7.9586    0.7092   11.6992 C   0  0  0  0  0  0  0  0  0  0  0  0
    8.6032    0.5747   13.3846 S   0  0  0  0  0  0  0  0  0  0  0  0
 18 19  1  0
 19  1  1  0
  1  2  2  0
  2  3  1  0
  3  4  1  0
  3  5  2  0
  5  6  1  0
  6 10  1  0
 10 11  2  0
 11 12  1  0
 12 13  2  0
 13 14  1  0
 13 15  1  0
 15 16  2  0
 16 17  1  0
  6  7  2  0
  7  1  1  0
 16 10  1  0
  4  8  1  0
  4  9  1  0
M  END
> <minimizedAffinity>
-5.96606

> <CNNscore>
0.7729963660

> <CNNaffinity>
5.4507102966

> <CNN_VS>
4.2133793831

> <CNNaffinity_variance>
0.0757060573

$$$$



 19 20  0  0  0  0  0  0  0  0999 V2000
   11.5128    1.1243   13.9890 C   0  0  0  0  0  0  0  0  0  0  0  0
   12.3708    2.0419   13.5539 N   0  0  0  0  0  0  0  0  0  0  0  0
   11.8233    3.1687   13.1386 C   0  0  0  0  0  0  0  0  0  0  0  0
   12.6693    4.1540   12.6749 N   0  0  0  0  0  0  0  0  0  0  0  0
   10.5290    3.4374   13.1582 N   0  0  0  0  0  0  0  0  0  0  0  0
    9.7561    2.4562   13.6237 C   0  0  0  0  0  0  0  0  0  0  0  0
   10.1940    1.2706   14.0336 N   0  0  0  0  0  0  0  0  0  0  0  0
   13.6404    3.9946   12.6438 H   0  0  0  0  0  0  0  0  0  0  0  0
   12.3023    5.0169   12.3749 H   0  0  0  0  0  0  0  0  0  0  0  0
    8.3056    2.6871   13.6094 C   0  0  0  0  0  0  0  0  0  0  0  0
    7.4344    1.5903   13.8016 C   0  0  0  0  0  0  0  0  0  0  0  0
    6.0476    1.7540   13.8148 C   0  0  0  0  0  0  0  0  0  0  0  0
    5.5106    3.0186   13.6303 C   0  0  0  0  0  0  0  0  0  0  0  0
    4.1813    3.1792   13.6412 F   0  0  0  0  0  0  0  0  0  0  0  0
    6.3307    4.1187   13.4263 C   0  0  0  0  0  0  0  0  0  0  0  0
    7.7212    3.9553   13.4121 C   0  0  0  0  0  0  0  0  0  0  0  0
    8.6602    5.3747   13.0856 Cl  0  0  0  0  0  0  0  0  0  0  0  0
   10.7265   -1.4328   14.6335 C   0  0  0  0  0  0  0  0  0  0  0  0
   12.2199   -0.4165   14.5271 S   0  0  0  0  0  0  0  0  0  0  0  0
 18 19  1  0
 19  1  1  0
  1  2  2  0
  2  3  1  0
  3  4  1  0
  3  5  2  0
  5  6  1  0
  6 10  1  0
 10 11  2  0
 11 12  1  0
 12 13  2  0
 13 14  1  0
 13 15  1  0
 15 16  2  0
 16 17  1  0
  6  7  2  0
  7  1  1  0
 16 10  1  0
  4  8  1  0
  4  9  1  0
M  END
> <minimizedAffinity>
-6.22272

> <CNNscore>
0.7263444662

> <CNNaffinity>
5.5046901703

> <CNN_VS>
3.9983012676

> <CNNaffinity_variance>
0.0459614731

$$$$
