


 19 20  0  0  0  0  0  0  0  0999 V2000
   14.7357   16.3045   24.3357 N   0  0  0  0  0  0  0  0  0  0  0  0
   15.7167   16.5355   23.3946 C   0  0  0  0  0  0  0  0  0  0  0  0
   16.9101   16.9193   23.8341 N   0  0  0  0  0  0  0  0  0  0  0  0
   17.8417   17.1294   22.8976 C   0  0  0  0  0  0  0  0  0  0  0  0
   19.0346   17.5581   23.4104 O   0  0  0  0  0  0  0  0  0  0  0  0
   17.6485   16.9442   21.5288 C   0  0  0  0  0  0  0  0  0  0  0  0
   18.6263   17.1199   20.5118 C   0  0  0  0  0  0  0  0  0  0  0  0
   18.3012   16.9321   19.1697 C   0  0  0  0  0  0  0  0  0  0  0  0
   19.2962   16.9846   18.1855 N   0  0  0  0  0  0  0  0  0  0  0  0
   17.0150   16.4757   18.8727 C   0  0  0  0  0  0  0  0  0  0  0  0
   16.6833   16.2222   17.5968 F   0  0  0  0  0  0  0  0  0  0  0  0
   16.0573   16.2910   19.8651 C   0  0  0  0  0  0  0  0  0  0  0  0
   16.3569   16.5226   21.1973 C   0  0  0  0  0  0  0  0  0  0  0  0
   15.4051   16.3193   22.1145 N   0  0  0  0  0  0  0  0  0  0  0  0
   14.9250   16.4518   25.2905 H   0  0  0  0  0  0  0  0  0  0  0  0
   13.8459   15.9921   24.0528 H   0  0  0  0  0  0  0  0  0  0  0  0
   19.1328   17.6729   24.3351 H   0  0  0  0  0  0  0  0  0  0  0  0
   20.1973   17.3092   18.4133 H   0  0  0  0  0  0  0  0  0  0  0  0
   19.0946   16.6968   17.2659 H   0  0  0  0  0  0  0  0  0  0  0  0
  1  2  1  0
  2  3  2  0
  3  4  1  0
  4  5  1  0
  4  6  2  0
  6  7  1  0
  7  8  2  0
  8  9  1  0
  8 10  1  0
 10 11  1  0
 10 12  2  0
 12 13  1  0
 13 14  2  0
 14  2  1  0
 13  6  1  0
  1 15  1  0
  1 16  1  0
  5 17  1  0
  9 18  1  0
  9 19  1  0
M  END
> <minimizedAffinity>
-7.50774

> <CNNscore>
0.9889456034

> <CNNaffinity>
6.3256421089

> <CNN_VS>
6.2557158470

> <CNNaffinity_variance>
0.0131170442

$$$$



 19 20  0  0  0  0  0  0  0  0999 V2000
   23.8440   15.6453   12.3109 N   0  0  0  0  0  0  0  0  0  0  0  0
   24.2639   16.8822   11.8691 C   0  0  0  0  0  0  0  0  0  0  0  0
   25.3845   16.9313   11.1574 N   0  0  0  0  0  0  0  0  0  0  0  0
   25.7620   18.1442   10.7384 C   0  0  0  0  0  0  0  0  0  0  0  0
   26.9404   18.1324   10.0449 O   0  0  0  0  0  0  0  0  0  0  0  0
   25.0522   19.3219   10.9711 C   0  0  0  0  0  0  0  0  0  0  0  0
   25.4034   20.6192   10.5075 C   0  0  0  0  0  0  0  0  0  0  0  0
   24.6248   21.7281   10.8331 C   0  0  0  0  0  0  0  0  0  0  0  0
   24.9051   22.9803   10.2720 N   0  0  0  0  0  0  0  0  0  0  0  0
   23.4446   21.5039   11.5457 C   0  0  0  0  0  0  0  0  0  0  0  0
   22.6354   22.5383   11.8238 F   0  0  0  0  0  0  0  0  0  0  0  0
   23.0898   20.2347   11.9922 C   0  0  0  0  0  0  0  0  0  0  0  0
   23.8832   19.1338   11.7154 C   0  0  0  0  0  0  0  0  0  0  0  0
   23.4927   17.9332   12.1569 N   0  0  0  0  0  0  0  0  0  0  0  0
   24.3841   14.8448   12.1195 H   0  0  0  0  0  0  0  0  0  0  0  0
   23.0040   15.5627   12.8178 H   0  0  0  0  0  0  0  0  0  0  0  0
   27.3937   17.3243    9.9052 H   0  0  0  0  0  0  0  0  0  0  0  0
   25.7422   23.1198    9.7729 H   0  0  0  0  0  0  0  0  0  0  0  0
   24.2651   23.7210   10.3766 H   0  0  0  0  0  0  0  0  0  0  0  0
  1  2  1  0
  2  3  2  0
  3  4  1  0
  4  5  1  0
  4  6  2  0
  6  7  1  0
  7  8  2  0
  8  9  1  0
  8 10  1  0
 10 11  1  0
 10 12  2  0
 12 13  1  0
 13 14  2  0
 14  2  1  0
 13  6  1  0
  1 15  1  0
  1 16  1  0
  5 17  1  0
  9 18  1  0
  9 19  1  0
M  END
> <minimizedAffinity>
-5.21804

> <CNNscore>
0.6401538849

> <CNNaffinity>
3.7321116924

> <CNN_VS>
2.3891258240

> <CNNaffinity_variance>
0.2197212428

$$$$



 19 20  0  0  0  0  0  0  0  0999 V2000
   26.6363   16.4987   11.5576 N   0  0  0  0  0  0  0  0  0  0  0  0
   25.6129   17.4115   11.7020 C   0  0  0  0  0  0  0  0  0  0  0  0
   25.8207   18.4430   12.5129 N   0  0  0  0  0  0  0  0  0  0  0  0
   24.8118   19.3136   12.6270 C   0  0  0  0  0  0  0  0  0  0  0  0
   25.0734   20.3301   13.5034 O   0  0  0  0  0  0  0  0  0  0  0  0
   23.6014   19.2218   11.9403 C   0  0  0  0  0  0  0  0  0  0  0  0
   22.5256   20.1489   12.0079 C   0  0  0  0  0  0  0  0  0  0  0  0
   21.3494   19.9299   11.2932 C   0  0  0  0  0  0  0  0  0  0  0  0
   20.3451   20.9057   11.2654 N   0  0  0  0  0  0  0  0  0  0  0  0
   21.3058   18.8241   10.4411 C   0  0  0  0  0  0  0  0  0  0  0  0
   20.2144   18.6144    9.6881 F   0  0  0  0  0  0  0  0  0  0  0  0
   22.3602   17.9196   10.3622 C   0  0  0  0  0  0  0  0  0  0  0  0
   23.5138   18.1025   11.1063 C   0  0  0  0  0  0  0  0  0  0  0  0
   24.5037   17.2112   10.9865 N   0  0  0  0  0  0  0  0  0  0  0  0
   27.4710   16.6104   12.0674 H   0  0  0  0  0  0  0  0  0  0  0  0
   26.5322   15.7353   10.9447 H   0  0  0  0  0  0  0  0  0  0  0  0
   25.8967   20.3638   13.9495 H   0  0  0  0  0  0  0  0  0  0  0  0
   20.3926   21.6784   11.8736 H   0  0  0  0  0  0  0  0  0  0  0  0
   19.5916   20.8188   10.6378 H   0  0  0  0  0  0  0  0  0  0  0  0
  1  2  1  0
  2  3  2  0
  3  4  1  0
  4  5  1  0
  4  6  2  0
  6  7  1  0
  7  8  2  0
  8  9  1  0
  8 10  1  0
 10 11  1  0
 10 12  2  0
 12 13  1  0
 13 14  2  0
 14  2  1  0
 13  6  1  0
  1 15  1  0
  1 16  1  0
  5 17  1  0
  9 18  1  0
  9 19  1  0
M  END
> <minimizedAffinity>
-6.08869

> <CNNscore>
0.5973693132

> <CNNaffinity>
3.8364350796

> <CNN_VS>
2.2917685509

> <CNNaffinity_variance>
0.3334272206

$$$$



 19 20  0  0  0  0  0  0  0  0999 V2000
   18.8891   17.4457   24.0934 N   0  0  0  0  0  0  0  0  0  0  0  0
   18.0714   17.1505   23.0231 C   0  0  0  0  0  0  0  0  0  0  0  0
   16.7892   16.9141   23.2775 N   0  0  0  0  0  0  0  0  0  0  0  0
   16.0211   16.6369   22.2182 C   0  0  0  0  0  0  0  0  0  0  0  0
   14.7224   16.3665   22.5499 O   0  0  0  0  0  0  0  0  0  0  0  0
   16.4677   16.6132   20.8972 C   0  0  0  0  0  0  0  0  0  0  0  0
   15.6716   16.3617   19.7464 C   0  0  0  0  0  0  0  0  0  0  0  0
   16.2430   16.3355   18.4757 C   0  0  0  0  0  0  0  0  0  0  0  0
   15.4356   16.2116   17.3380 N   0  0  0  0  0  0  0  0  0  0  0  0
   17.5978   16.6575   18.3681 C   0  0  0  0  0  0  0  0  0  0  0  0
   18.1701   16.7052   17.1547 F   0  0  0  0  0  0  0  0  0  0  0  0
   18.3794   16.9158   19.4900 C   0  0  0  0  0  0  0  0  0  0  0  0
   17.8307   16.8956   20.7614 C   0  0  0  0  0  0  0  0  0  0  0  0
   18.6214   17.1620   21.8066 N   0  0  0  0  0  0  0  0  0  0  0  0
   18.5224   17.4479   25.0071 H   0  0  0  0  0  0  0  0  0  0  0  0
   19.8396   17.6542   23.9440 H   0  0  0  0  0  0  0  0  0  0  0  0
   14.4533   16.3905   23.4471 H   0  0  0  0  0  0  0  0  0  0  0  0
   14.4825   15.9839   17.4332 H   0  0  0  0  0  0  0  0  0  0  0  0
   15.8211   16.3522   16.4431 H   0  0  0  0  0  0  0  0  0  0  0  0
  1  2  1  0
  2  3  2  0
  3  4  1  0
  4  5  1  0
  4  6  2  0
  6  7  1  0
  7  8  2  0
  8  9  1  0
  8 10  1  0
 10 11  1  0
 10 12  2  0
 12 13  1  0
 13 14  2  0
 14  2  1  0
 13  6  1  0
  1 15  1  0
  1 16  1  0
  5 17  1  0
  9 18  1  0
  9 19  1  0
M  END
> <minimizedAffinity>
-5.25312

> <CNNscore>
0.5377395153

> <CNNaffinity>
5.3278045654

> <CNN_VS>
2.8649711609

> <CNNaffinity_variance>
0.0185123552

$$$$



 19 20  0  0  0  0  0  0  0  0999 V2000
   18.5110   16.6028   21.7732 N   0  0  0  0  0  0  0  0  0  0  0  0
   17.8649   16.6345   20.5554 C   0  0  0  0  0  0  0  0  0  0  0  0
   16.5702   16.3378   20.5400 N   0  0  0  0  0  0  0  0  0  0  0  0
   15.9709   16.3833   19.3451 C   0  0  0  0  0  0  0  0  0  0  0  0
   14.6503   16.0316   19.3905 O   0  0  0  0  0  0  0  0  0  0  0  0
   16.5999   16.7443   18.1538 C   0  0  0  0  0  0  0  0  0  0  0  0
   15.9848   16.8412   16.8757 C   0  0  0  0  0  0  0  0  0  0  0  0
   16.7303   17.1848   15.7495 C   0  0  0  0  0  0  0  0  0  0  0  0
   16.0969   17.3999   14.5190 N   0  0  0  0  0  0  0  0  0  0  0  0
   18.0727   17.5204   15.9393 C   0  0  0  0  0  0  0  0  0  0  0  0
   18.8080   17.9180   14.8888 F   0  0  0  0  0  0  0  0  0  0  0  0
   18.6773   17.4385   17.1899 C   0  0  0  0  0  0  0  0  0  0  0  0
   17.9560   17.0503   18.3066 C   0  0  0  0  0  0  0  0  0  0  0  0
   18.5801   16.9984   19.4883 N   0  0  0  0  0  0  0  0  0  0  0  0
   18.0194   16.3397   22.5845 H   0  0  0  0  0  0  0  0  0  0  0  0
   19.4640   16.8431   21.8313 H   0  0  0  0  0  0  0  0  0  0  0  0
   14.2566   15.7939   20.2069 H   0  0  0  0  0  0  0  0  0  0  0  0
   15.1499   17.1570   14.4037 H   0  0  0  0  0  0  0  0  0  0  0  0
   16.5988   17.7941   13.7694 H   0  0  0  0  0  0  0  0  0  0  0  0
  1  2  1  0
  2  3  2  0
  3  4  1  0
  4  5  1  0
  4  6  2  0
  6  7  1  0
  7  8  2  0
  8  9  1  0
  8 10  1  0
 10 11  1  0
 10 12  2  0
 12 13  1  0
 13 14  2  0
 14  2  1  0
 13  6  1  0
  1 15  1  0
  1 16  1  0
  5 17  1  0
  9 18  1  0
  9 19  1  0
M  END
> <minimizedAffinity>
-5.95629

> <CNNscore>
0.5366345644

> <CNNaffinity>
4.5765862465

> <CNN_VS>
2.4559543133

> <CNNaffinity_variance>
0.0724320933

$$$$



 19 20  0  0  0  0  0  0  0  0999 V2000
   18.9689   20.2585   11.6386 N   0  0  0  0  0  0  0  0  0  0  0  0
   20.0138   19.3588   11.6549 C   0  0  0  0  0  0  0  0  0  0  0  0
   19.7177   18.0722   11.5082 N   0  0  0  0  0  0  0  0  0  0  0  0
   20.7530   17.2254   11.5223 C   0  0  0  0  0  0  0  0  0  0  0  0
   20.3796   15.9153   11.4050 O   0  0  0  0  0  0  0  0  0  0  0  0
   22.0890   17.6058   11.6467 C   0  0  0  0  0  0  0  0  0  0  0  0
   23.2144   16.7372   11.6258 C   0  0  0  0  0  0  0  0  0  0  0  0
   24.5046   17.2375   11.7906 C   0  0  0  0  0  0  0  0  0  0  0  0
   25.6148   16.3962   11.6448 N   0  0  0  0  0  0  0  0  0  0  0  0
   24.6554   18.6231   11.8803 C   0  0  0  0  0  0  0  0  0  0  0  0
   25.8873   19.1478   11.9761 F   0  0  0  0  0  0  0  0  0  0  0  0
   23.5583   19.4790   11.8897 C   0  0  0  0  0  0  0  0  0  0  0  0
   22.2688   18.9867   11.7760 C   0  0  0  0  0  0  0  0  0  0  0  0
   21.2485   19.8514   11.7786 N   0  0  0  0  0  0  0  0  0  0  0  0
   18.0431   19.9361   11.5490 H   0  0  0  0  0  0  0  0  0  0  0  0
   19.1488   21.2233   11.7165 H   0  0  0  0  0  0  0  0  0  0  0  0
   19.4733   15.6920   11.3230 H   0  0  0  0  0  0  0  0  0  0  0  0
   25.4893   15.4217   11.5833 H   0  0  0  0  0  0  0  0  0  0  0  0
   26.5208   16.7794   11.6040 H   0  0  0  0  0  0  0  0  0  0  0  0
  1  2  1  0
  2  3  2  0
  3  4  1  0
  4  5  1  0
  4  6  2  0
  6  7  1  0
  7  8  2  0
  8  9  1  0
  8 10  1  0
 10 11  1  0
 10 12  2  0
 12 13  1  0
 13 14  2  0
 14  2  1  0
 13  6  1  0
  1 15  1  0
  1 16  1  0
  5 17  1  0
  9 18  1  0
  9 19  1  0
M  END
> <minimizedAffinity>
-4.82707

> <CNNscore>
0.3591157496

> <CNNaffinity>
4.1933183670

> <CNN_VS>
1.5058866739

> <CNNaffinity_variance>
0.0490922891

$$$$



 19 20  0  0  0  0  0  0  0  0999 V2000
   25.9775   18.3218   11.5123 N   0  0  0  0  0  0  0  0  0  0  0  0
   24.6036   18.3488   11.3977 C   0  0  0  0  0  0  0  0  0  0  0  0
   23.9639   19.3842   11.9303 N   0  0  0  0  0  0  0  0  0  0  0  0
   22.6330   19.3845   11.7973 C   0  0  0  0  0  0  0  0  0  0  0  0
   22.0314   20.4552   12.3983 O   0  0  0  0  0  0  0  0  0  0  0  0
   21.9014   18.4062   11.1244 C   0  0  0  0  0  0  0  0  0  0  0  0
   20.4930   18.3961   10.9306 C   0  0  0  0  0  0  0  0  0  0  0  0
   19.8723   17.3418   10.2634 C   0  0  0  0  0  0  0  0  0  0  0  0
   18.5046   17.3979    9.9669 N   0  0  0  0  0  0  0  0  0  0  0  0
   20.6903   16.3521    9.7138 C   0  0  0  0  0  0  0  0  0  0  0  0
   20.1349   15.3534    9.0093 F   0  0  0  0  0  0  0  0  0  0  0  0
   22.0705   16.3628    9.8905 C   0  0  0  0  0  0  0  0  0  0  0  0
   22.6914   17.3809   10.5946 C   0  0  0  0  0  0  0  0  0  0  0  0
   24.0220   17.3519   10.7267 N   0  0  0  0  0  0  0  0  0  0  0  0
   26.4450   19.0383   11.9994 H   0  0  0  0  0  0  0  0  0  0  0  0
   26.4909   17.5859   11.1072 H   0  0  0  0  0  0  0  0  0  0  0  0
   22.5509   21.0959   12.8428 H   0  0  0  0  0  0  0  0  0  0  0  0
   17.9435   18.1029   10.3636 H   0  0  0  0  0  0  0  0  0  0  0  0
   18.1044   16.7325    9.3617 H   0  0  0  0  0  0  0  0  0  0  0  0
  1  2  1  0
  2  3  2  0
  3  4  1  0
  4  5  1  0
  4  6  2  0
  6  7  1  0
  7  8  2  0
  8  9  1  0
  8 10  1  0
 10 11  1  0
 10 12  2  0
 12 13  1  0
 13 14  2  0
 14  2  1  0
 13  6  1  0
  1 15  1  0
  1 16  1  0
  5 17  1  0
  9 18  1  0
  9 19  1  0
M  END
> <minimizedAffinity>
-5.11897

> <CNNscore>
0.3086449504

> <CNNaffinity>
3.7237329483

> <CNN_VS>
1.1493114233

> <CNNaffinity_variance>
0.3273530900

$$$$



 19 20  0  0  0  0  0  0  0  0999 V2000
   18.9972   17.3164   17.7865 N   0  0  0  0  0  0  0  0  0  0  0  0
   17.6625   16.9882   17.8982 C   0  0  0  0  0  0  0  0  0  0  0  0
   17.2224   16.6071   19.0923 N   0  0  0  0  0  0  0  0  0  0  0  0
   15.9226   16.3014   19.1696 C   0  0  0  0  0  0  0  0  0  0  0  0
   15.5406   15.8812   20.4134 O   0  0  0  0  0  0  0  0  0  0  0  0
   15.0216   16.3872   18.1085 C   0  0  0  0  0  0  0  0  0  0  0  0
   13.6286   16.1086   18.1655 C   0  0  0  0  0  0  0  0  0  0  0  0
   12.8351   16.2025   17.0238 C   0  0  0  0  0  0  0  0  0  0  0  0
   11.4458   16.0488   17.1118 N   0  0  0  0  0  0  0  0  0  0  0  0
   13.4373   16.6694   15.8533 C   0  0  0  0  0  0  0  0  0  0  0  0
   12.6923   16.8341   14.7487 F   0  0  0  0  0  0  0  0  0  0  0  0
   14.7979   16.9547   15.7945 C   0  0  0  0  0  0  0  0  0  0  0  0
   15.6043   16.8169   16.9120 C   0  0  0  0  0  0  0  0  0  0  0  0
   16.9039   17.1149   16.8070 N   0  0  0  0  0  0  0  0  0  0  0  0
   19.5907   17.2369   18.5679 H   0  0  0  0  0  0  0  0  0  0  0  0
   19.3565   17.6301   16.9253 H   0  0  0  0  0  0  0  0  0  0  0  0
   16.1701   15.8344   21.1059 H   0  0  0  0  0  0  0  0  0  0  0  0
   11.0389   15.7183   17.9452 H   0  0  0  0  0  0  0  0  0  0  0  0
   10.8761   16.2712   16.3403 H   0  0  0  0  0  0  0  0  0  0  0  0
  1  2  1  0
  2  3  2  0
  3  4  1  0
  4  5  1  0
  4  6  2  0
  6  7  1  0
  7  8  2  0
  8  9  1  0
  8 10  1  0
 10 11  1  0
 10 12  2  0
 12 13  1  0
 13 14  2  0
 14  2  1  0
 13  6  1  0
  1 15  1  0
  1 16  1  0
  5 17  1  0
  9 18  1  0
  9 19  1  0
M  END
> <minimizedAffinity>
-6.87049

> <CNNscore>
0.3007679880

> <CNNaffinity>
4.0160770416

> <CNN_VS>
1.2079074383

> <CNNaffinity_variance>
0.6875227094

$$$$



 19 20  0  0  0  0  0  0  0  0999 V2000
   23.1231   15.2913   11.9966 N   0  0  0  0  0  0  0  0  0  0  0  0
   23.2307   16.6659   12.0151 C   0  0  0  0  0  0  0  0  0  0  0  0
   24.4111   17.1845   12.3351 N   0  0  0  0  0  0  0  0  0  0  0  0
   24.4850   18.5200   12.3383 C   0  0  0  0  0  0  0  0  0  0  0  0
   25.7131   18.9911   12.7117 O   0  0  0  0  0  0  0  0  0  0  0  0
   23.4348   19.3748   12.0044 C   0  0  0  0  0  0  0  0  0  0  0  0
   23.4902   20.7947   11.9591 C   0  0  0  0  0  0  0  0  0  0  0  0
   22.3590   21.5428   11.6385 C   0  0  0  0  0  0  0  0  0  0  0  0
   22.4505   22.9307   11.4739 N   0  0  0  0  0  0  0  0  0  0  0  0
   21.2045   20.8469   11.2732 C   0  0  0  0  0  0  0  0  0  0  0  0
   20.1130   21.5316   10.8965 F   0  0  0  0  0  0  0  0  0  0  0  0
   21.1478   19.4569   11.3046 C   0  0  0  0  0  0  0  0  0  0  0  0
   22.2529   18.7062   11.6697 C   0  0  0  0  0  0  0  0  0  0  0  0
   22.1510   17.3726   11.6728 N   0  0  0  0  0  0  0  0  0  0  0  0
   23.8963   14.7336   12.2423 H   0  0  0  0  0  0  0  0  0  0  0  0
   22.2730   14.8675   11.7377 H   0  0  0  0  0  0  0  0  0  0  0  0
   26.3985   18.3908   12.9302 H   0  0  0  0  0  0  0  0  0  0  0  0
   23.2724   23.4044   11.7371 H   0  0  0  0  0  0  0  0  0  0  0  0
   21.6930   23.4324   11.0951 H   0  0  0  0  0  0  0  0  0  0  0  0
  1  2  1  0
  2  3  2  0
  3  4  1  0
  4  5  1  0
  4  6  2  0
  6  7  1  0
  7  8  2  0
  8  9  1  0
  8 10  1  0
 10 11  1  0
 10 12  2  0
 12 13  1  0
 13 14  2  0
 14  2  1  0
 13  6  1  0
  1 15  1  0
  1 16  1  0
  5 17  1  0
  9 18  1  0
  9 19  1  0
M  END
> <minimizedAffinity>
-4.49213

> <CNNscore>
0.2909376025

> <CNNaffinity>
3.4957110882

> <CNN_VS>
1.0170338154

> <CNNaffinity_variance>
0.6145775914

$$$$
