


 17 18  0  0  0  0  0  0  0  0999 V2000
   21.0068  -31.6742  -35.0811 C   0  0  0  0  0  0  0  0  0  0  0  0
   22.0616  -30.8743  -35.8012 C   0  0  0  0  0  0  0  0  0  0  0  0
   21.7216  -29.6297  -36.3298 C   0  0  0  0  0  0  0  0  0  0  0  0
   22.5726  -28.8194  -36.9971 N   0  0  0  0  0  0  0  0  0  0  0  0
   23.8305  -29.2651  -37.1551 C   0  0  0  0  0  0  0  0  0  0  0  0
   24.8680  -28.2018  -38.0094 Cl  0  0  0  0  0  0  0  0  0  0  0  0
   24.2893  -30.4750  -36.6807 C   0  0  0  0  0  0  0  0  0  0  0  0
   23.3865  -31.2854  -35.9940 C   0  0  0  0  0  0  0  0  0  0  0  0
   24.0530  -32.9409  -35.3430 Br  0  0  0  0  0  0  0  0  0  0  0  0
   22.4626  -30.1073  -33.0846 N   0  0  0  0  0  0  0  0  0  0  0  0
   21.1730  -30.1737  -33.0953 C   0  0  0  0  0  0  0  0  0  0  0  0
   20.0928  -29.3000  -32.0001 S   0  0  0  0  0  0  0  0  0  0  0  0
   18.6567  -30.2916  -32.4929 C   0  0  0  0  0  0  0  0  0  0  0  0
   18.9856  -30.7478  -33.9083 C   0  0  0  0  0  0  0  0  0  0  0  0
   20.4295  -30.9433  -33.9640 N   0  0  0  0  0  0  0  0  0  0  0  0
   23.6290  -28.6897  -31.3942 N   0  0  0  0  0  0  0  0  0  0  0  0
   23.0790  -29.3318  -32.1870 C   0  0  0  0  0  0  0  0  0  0  0  0
 16 17  3  0
 17 10  1  0
 10 11  2  0
 11 12  1  0
 12 13  1  0
 13 14  1  0
 14 15  1  0
 15  1  1  0
  1  2  1  0
  2  3  2  0
  3  4  1  0
  4  5  2  0
  5  6  1  0
  5  7  1  0
  7  8  2  0
  8  9  1  0
 15 11  1  0
  8  2  1  0
M  END
> <minimizedAffinity>
-3.91501

> <CNNscore>
0.6177278757

> <CNNaffinity>
5.1933598518

> <CNN_VS>
3.2080831528

> <CNNaffinity_variance>
0.0461775400

$$$$



 17 18  0  0  0  0  0  0  0  0999 V2000
   22.7891  -32.2078  -33.1860 C   0  0  0  0  0  0  0  0  0  0  0  0
   23.1709  -31.2422  -34.2780 C   0  0  0  0  0  0  0  0  0  0  0  0
   22.2024  -30.8487  -35.2006 C   0  0  0  0  0  0  0  0  0  0  0  0
   22.4182  -29.9933  -36.2242 N   0  0  0  0  0  0  0  0  0  0  0  0
   23.6627  -29.5012  -36.3466 C   0  0  0  0  0  0  0  0  0  0  0  0
   23.8838  -28.4238  -37.6608 Cl  0  0  0  0  0  0  0  0  0  0  0  0
   24.7057  -29.8123  -35.5011 C   0  0  0  0  0  0  0  0  0  0  0  0
   24.4484  -30.6953  -34.4535 C   0  0  0  0  0  0  0  0  0  0  0  0
   25.9036  -31.0946  -33.2996 Br  0  0  0  0  0  0  0  0  0  0  0  0
   23.6981  -34.1465  -31.1921 N   0  0  0  0  0  0  0  0  0  0  0  0
   23.6335  -34.4363  -32.4488 C   0  0  0  0  0  0  0  0  0  0  0  0
   23.9903  -36.0184  -33.1553 S   0  0  0  0  0  0  0  0  0  0  0  0
   24.0206  -35.3506  -34.8410 C   0  0  0  0  0  0  0  0  0  0  0  0
   23.1144  -34.1282  -34.7750 C   0  0  0  0  0  0  0  0  0  0  0  0
   23.2783  -33.5527  -33.4453 N   0  0  0  0  0  0  0  0  0  0  0  0
   24.4160  -35.9011  -29.5691 N   0  0  0  0  0  0  0  0  0  0  0  0
   24.0651  -35.0848  -30.3135 C   0  0  0  0  0  0  0  0  0  0  0  0
 16 17  3  0
 17 10  1  0
 10 11  2  0
 11 12  1  0
 12 13  1  0
 13 14  1  0
 14 15  1  0
 15  1  1  0
  1  2  1  0
  2  3  2  0
  3  4  1  0
  4  5  2  0
  5  6  1  0
  5  7  1  0
  7  8  2  0
  8  9  1  0
 15 11  1  0
  8  2  1  0
M  END
> <minimizedAffinity>
-3.87886

> <CNNscore>
0.5590013266

> <CNNaffinity>
4.9017581940

> <CNN_VS>
2.7400894165

> <CNNaffinity_variance>
0.1676772684

$$$$



 17 18  0  0  0  0  0  0  0  0999 V2000
   23.3937  -32.1556  -36.1844 C   0  0  0  0  0  0  0  0  0  0  0  0
   24.7384  -31.5487  -35.8771 C   0  0  0  0  0  0  0  0  0  0  0  0
   25.6775  -32.3064  -35.1787 C   0  0  0  0  0  0  0  0  0  0  0  0
   26.9136  -31.8775  -34.8405 N   0  0  0  0  0  0  0  0  0  0  0  0
   27.2397  -30.6272  -35.2094 C   0  0  0  0  0  0  0  0  0  0  0  0
   28.8159  -30.1315  -34.7548 Cl  0  0  0  0  0  0  0  0  0  0  0  0
   26.4016  -29.7798  -35.9016 C   0  0  0  0  0  0  0  0  0  0  0  0
   25.1347  -30.2546  -36.2376 C   0  0  0  0  0  0  0  0  0  0  0  0
   24.0082  -29.0667  -37.2012 Br  0  0  0  0  0  0  0  0  0  0  0  0
   24.0501  -34.9534  -36.7336 N   0  0  0  0  0  0  0  0  0  0  0  0
   23.6335  -34.1539  -37.6581 C   0  0  0  0  0  0  0  0  0  0  0  0
   23.3188  -34.6066  -39.3391 S   0  0  0  0  0  0  0  0  0  0  0  0
   23.1992  -32.8764  -39.8690 C   0  0  0  0  0  0  0  0  0  0  0  0
   22.7571  -32.1317  -38.6161 C   0  0  0  0  0  0  0  0  0  0  0  0
   23.3705  -32.8124  -37.4819 N   0  0  0  0  0  0  0  0  0  0  0  0
   24.4910  -37.3415  -37.3086 N   0  0  0  0  0  0  0  0  0  0  0  0
   24.2821  -36.2378  -37.0229 C   0  0  0  0  0  0  0  0  0  0  0  0
 16 17  3  0
 17 10  1  0
 10 11  2  0
 11 12  1  0
 12 13  1  0
 13 14  1  0
 14 15  1  0
 15  1  1  0
  1  2  1  0
  2  3  2  0
  3  4  1  0
  4  5  2  0
  5  6  1  0
  5  7  1  0
  7  8  2  0
  8  9  1  0
 15 11  1  0
  8  2  1  0
M  END
> <minimizedAffinity>
-3.81745

> <CNNscore>
0.4752021432

> <CNNaffinity>
4.6908955574

> <CNN_VS>
2.2291235924

> <CNNaffinity_variance>
0.0433481187

$$$$



 17 18  0  0  0  0  0  0  0  0999 V2000
   25.3109  -31.6338  -36.9308 C   0  0  0  0  0  0  0  0  0  0  0  0
   24.6862  -30.9275  -35.7554 C   0  0  0  0  0  0  0  0  0  0  0  0
   24.7972  -31.4978  -34.4880 C   0  0  0  0  0  0  0  0  0  0  0  0
   24.2808  -30.9665  -33.3578 N   0  0  0  0  0  0  0  0  0  0  0  0
   23.6128  -29.8077  -33.4870 C   0  0  0  0  0  0  0  0  0  0  0  0
   22.9764  -29.1779  -32.0257 Cl  0  0  0  0  0  0  0  0  0  0  0  0
   23.4337  -29.1454  -34.6823 C   0  0  0  0  0  0  0  0  0  0  0  0
   23.9819  -29.7190  -35.8286 C   0  0  0  0  0  0  0  0  0  0  0  0
   23.7274  -28.7759  -37.4578 Br  0  0  0  0  0  0  0  0  0  0  0  0
   25.9495  -33.6311  -38.9712 N   0  0  0  0  0  0  0  0  0  0  0  0
   24.7504  -33.4745  -38.5183 C   0  0  0  0  0  0  0  0  0  0  0  0
   23.3481  -34.4535  -38.9707 S   0  0  0  0  0  0  0  0  0  0  0  0
   22.1860  -33.2921  -38.2030 C   0  0  0  0  0  0  0  0  0  0  0  0
   23.0028  -32.6131  -37.1114 C   0  0  0  0  0  0  0  0  0  0  0  0
   24.3698  -32.5115  -37.6086 N   0  0  0  0  0  0  0  0  0  0  0  0
   26.4240  -35.4069  -40.6592 N   0  0  0  0  0  0  0  0  0  0  0  0
   26.2011  -34.5962  -39.8615 C   0  0  0  0  0  0  0  0  0  0  0  0
 16 17  3  0
 17 10  1  0
 10 11  2  0
 11 12  1  0
 12 13  1  0
 13 14  1  0
 14 15  1  0
 15  1  1  0
  1  2  1  0
  2  3  2  0
  3  4  1  0
  4  5  2  0
  5  6  1  0
  5  7  1  0
  7  8  2  0
  8  9  1  0
 15 11  1  0
  8  2  1  0
M  END
> <minimizedAffinity>
-4.68293

> <CNNscore>
0.3979646862

> <CNNaffinity>
4.5224046707

> <CNN_VS>
1.7997573614

> <CNNaffinity_variance>
0.6609275937

$$$$



 17 18  0  0  0  0  0  0  0  0999 V2000
   30.7763  -27.8208  -28.8404 C   0  0  0  0  0  0  0  0  0  0  0  0
   31.3261  -27.7098  -27.4417 C   0  0  0  0  0  0  0  0  0  0  0  0
   31.9733  -26.5347  -27.0618 C   0  0  0  0  0  0  0  0  0  0  0  0
   32.5102  -26.3126  -25.8418 N   0  0  0  0  0  0  0  0  0  0  0  0
   32.4057  -27.3093  -24.9466 C   0  0  0  0  0  0  0  0  0  0  0  0
   33.1042  -26.9781  -23.4171 Cl  0  0  0  0  0  0  0  0  0  0  0  0
   31.7912  -28.5168  -25.1993 C   0  0  0  0  0  0  0  0  0  0  0  0
   31.2450  -28.7122  -26.4669 C   0  0  0  0  0  0  0  0  0  0  0  0
   30.3950  -30.3821  -26.7795 Br  0  0  0  0  0  0  0  0  0  0  0  0
   30.6504  -26.9535  -31.6318 N   0  0  0  0  0  0  0  0  0  0  0  0
   30.1762  -26.2346  -30.6696 C   0  0  0  0  0  0  0  0  0  0  0  0
   29.3261  -24.6953  -30.8634 S   0  0  0  0  0  0  0  0  0  0  0  0
   29.4352  -24.3178  -29.0930 C   0  0  0  0  0  0  0  0  0  0  0  0
   29.5200  -25.6836  -28.4243 C   0  0  0  0  0  0  0  0  0  0  0  0
   30.2613  -26.5522  -29.3311 N   0  0  0  0  0  0  0  0  0  0  0  0
   30.4118  -26.1472  -33.9815 N   0  0  0  0  0  0  0  0  0  0  0  0
   30.5173  -26.5399  -32.8961 C   0  0  0  0  0  0  0  0  0  0  0  0
 16 17  3  0
 17 10  1  0
 10 11  2  0
 11 12  1  0
 12 13  1  0
 13 14  1  0
 14 15  1  0
 15  1  1  0
  1  2  1  0
  2  3  2  0
  3  4  1  0
  4  5  2  0
  5  6  1  0
  5  7  1  0
  7  8  2  0
  8  9  1  0
 15 11  1  0
  8  2  1  0
M  END
> <minimizedAffinity>
-5.76267

> <CNNscore>
0.3488104343

> <CNNaffinity>
6.7889270782

> <CNN_VS>
2.3680486679

> <CNNaffinity_variance>
0.3285999596

$$$$



 17 18  0  0  0  0  0  0  0  0999 V2000
   23.5610  -31.4626  -34.6781 C   0  0  0  0  0  0  0  0  0  0  0  0
   25.0148  -31.0706  -34.7397 C   0  0  0  0  0  0  0  0  0  0  0  0
   25.9061  -31.6371  -33.8295 C   0  0  0  0  0  0  0  0  0  0  0  0
   27.2293  -31.3673  -33.7796 N   0  0  0  0  0  0  0  0  0  0  0  0
   27.6988  -30.4843  -34.6773 C   0  0  0  0  0  0  0  0  0  0  0  0
   29.3811  -30.1757  -34.5702 Cl  0  0  0  0  0  0  0  0  0  0  0  0
   26.9215  -29.8567  -35.6267 C   0  0  0  0  0  0  0  0  0  0  0  0
   25.5611  -30.1599  -35.6529 C   0  0  0  0  0  0  0  0  0  0  0  0
   24.5196  -29.2870  -36.9803 Br  0  0  0  0  0  0  0  0  0  0  0  0
   21.9283  -32.9132  -32.7311 N   0  0  0  0  0  0  0  0  0  0  0  0
   22.1832  -31.6533  -32.6074 C   0  0  0  0  0  0  0  0  0  0  0  0
   21.6806  -30.6345  -31.2513 S   0  0  0  0  0  0  0  0  0  0  0  0
   22.1092  -29.1083  -32.1320 C   0  0  0  0  0  0  0  0  0  0  0  0
   23.1986  -29.5334  -33.1078 C   0  0  0  0  0  0  0  0  0  0  0  0
   22.8877  -30.8973  -33.5194 N   0  0  0  0  0  0  0  0  0  0  0  0
   20.6025  -34.0570  -30.9529 N   0  0  0  0  0  0  0  0  0  0  0  0
   21.2253  -33.5434  -31.7847 C   0  0  0  0  0  0  0  0  0  0  0  0
 16 17  3  0
 17 10  1  0
 10 11  2  0
 11 12  1  0
 12 13  1  0
 13 14  1  0
 14 15  1  0
 15  1  1  0
  1  2  1  0
  2  3  2  0
  3  4  1  0
  4  5  2  0
  5  6  1  0
  5  7  1  0
  7  8  2  0
  8  9  1  0
 15 11  1  0
  8  2  1  0
M  END
> <minimizedAffinity>
-4.44517

> <CNNscore>
0.3141627908

> <CNNaffinity>
5.4370427132

> <CNN_VS>
1.7081165314

> <CNNaffinity_variance>
0.0523704886

$$$$



 17 18  0  0  0  0  0  0  0  0999 V2000
   20.7376  -32.3036  -33.9972 C   0  0  0  0  0  0  0  0  0  0  0  0
   21.5688  -31.3596  -34.8272 C   0  0  0  0  0  0  0  0  0  0  0  0
   20.9257  -30.4816  -35.6987 C   0  0  0  0  0  0  0  0  0  0  0  0
   21.5556  -29.5908  -36.4961 N   0  0  0  0  0  0  0  0  0  0  0  0
   22.8977  -29.5683  -36.4325 C   0  0  0  0  0  0  0  0  0  0  0  0
   23.6473  -28.4236  -37.4642 Cl  0  0  0  0  0  0  0  0  0  0  0  0
   23.6486  -30.3838  -35.6136 C   0  0  0  0  0  0  0  0  0  0  0  0
   22.9674  -31.2893  -34.8014 C   0  0  0  0  0  0  0  0  0  0  0  0
   24.0303  -32.3906  -33.6762 Br  0  0  0  0  0  0  0  0  0  0  0  0
   19.8022  -29.8410  -32.7242 N   0  0  0  0  0  0  0  0  0  0  0  0
   20.2781  -30.8272  -32.0398 C   0  0  0  0  0  0  0  0  0  0  0  0
   20.3719  -30.8988  -30.2747 S   0  0  0  0  0  0  0  0  0  0  0  0
   21.4656  -32.3449  -30.3092 C   0  0  0  0  0  0  0  0  0  0  0  0
   21.1304  -33.0355  -31.6247 C   0  0  0  0  0  0  0  0  0  0  0  0
   20.7952  -31.9854  -32.5792 N   0  0  0  0  0  0  0  0  0  0  0  0
   18.8947  -27.8328  -31.5531 N   0  0  0  0  0  0  0  0  0  0  0  0
   19.3345  -28.7599  -32.0919 C   0  0  0  0  0  0  0  0  0  0  0  0
 16 17  3  0
 17 10  1  0
 10 11  2  0
 11 12  1  0
 12 13  1  0
 13 14  1  0
 14 15  1  0
 15  1  1  0
  1  2  1  0
  2  3  2  0
  3  4  1  0
  4  5  2  0
  5  6  1  0
  5  7  1  0
  7  8  2  0
  8  9  1  0
 15 11  1  0
  8  2  1  0
M  END
> <minimizedAffinity>
-4.73039

> <CNNscore>
0.3109133840

> <CNNaffinity>
4.4989132881

> <CNN_VS>
1.3987723589

> <CNNaffinity_variance>
0.2607666254

$$$$



 17 18  0  0  0  0  0  0  0  0999 V2000
   30.1428  -26.8706  -30.2200 C   0  0  0  0  0  0  0  0  0  0  0  0
   29.8072  -25.8223  -31.2491 C   0  0  0  0  0  0  0  0  0  0  0  0
   29.5929  -24.5096  -30.8309 C   0  0  0  0  0  0  0  0  0  0  0  0
   29.2840  -23.4818  -31.6520 N   0  0  0  0  0  0  0  0  0  0  0  0
   29.1765  -23.7670  -32.9608 C   0  0  0  0  0  0  0  0  0  0  0  0
   28.7813  -22.4303  -33.9578 Cl  0  0  0  0  0  0  0  0  0  0  0  0
   29.3638  -25.0221  -33.4984 C   0  0  0  0  0  0  0  0  0  0  0  0
   29.6845  -26.0595  -32.6240 C   0  0  0  0  0  0  0  0  0  0  0  0
   29.9475  -27.7744  -33.3976 Br  0  0  0  0  0  0  0  0  0  0  0  0
   31.1556  -28.1655  -27.7997 N   0  0  0  0  0  0  0  0  0  0  0  0
   30.6171  -26.9921  -27.7740 C   0  0  0  0  0  0  0  0  0  0  0  0
   30.4730  -25.9617  -26.3432 S   0  0  0  0  0  0  0  0  0  0  0  0
   29.3156  -24.8361  -27.1688 C   0  0  0  0  0  0  0  0  0  0  0  0
   29.6537  -24.9712  -28.6477 C   0  0  0  0  0  0  0  0  0  0  0  0
   30.0620  -26.3544  -28.8626 N   0  0  0  0  0  0  0  0  0  0  0  0
   32.1157  -29.1605  -25.7221 N   0  0  0  0  0  0  0  0  0  0  0  0
   31.6553  -28.6902  -26.6762 C   0  0  0  0  0  0  0  0  0  0  0  0
 16 17  3  0
 17 10  1  0
 10 11  2  0
 11 12  1  0
 12 13  1  0
 13 14  1  0
 14 15  1  0
 15  1  1  0
  1  2  1  0
  2  3  2  0
  3  4  1  0
  4  5  2  0
  5  6  1  0
  5  7  1  0
  7  8  2  0
  8  9  1  0
 15 11  1  0
  8  2  1  0
M  END
> <minimizedAffinity>
-5.66767

> <CNNscore>
0.2980095148

> <CNNaffinity>
6.9272346497

> <CNN_VS>
2.0643818378

> <CNNaffinity_variance>
0.3752404451

$$$$



 17 18  0  0  0  0  0  0  0  0999 V2000
   23.1941  -29.1159  -34.2122 C   0  0  0  0  0  0  0  0  0  0  0  0
   24.3286  -30.0139  -34.6330 C   0  0  0  0  0  0  0  0  0  0  0  0
   24.8755  -30.8936  -33.6997 C   0  0  0  0  0  0  0  0  0  0  0  0
   25.8937  -31.7458  -33.9509 N   0  0  0  0  0  0  0  0  0  0  0  0
   26.4041  -31.7256  -35.1938 C   0  0  0  0  0  0  0  0  0  0  0  0
   27.6936  -32.8226  -35.4595 Cl  0  0  0  0  0  0  0  0  0  0  0  0
   25.9525  -30.9037  -36.2038 C   0  0  0  0  0  0  0  0  0  0  0  0
   24.8988  -30.0388  -35.9121 C   0  0  0  0  0  0  0  0  0  0  0  0
   24.2922  -28.9277  -37.3285 Br  0  0  0  0  0  0  0  0  0  0  0  0
   21.7424  -29.9822  -31.8242 N   0  0  0  0  0  0  0  0  0  0  0  0
   21.2625  -30.1416  -33.0124 C   0  0  0  0  0  0  0  0  0  0  0  0
   19.6699  -30.8112  -33.3930 S   0  0  0  0  0  0  0  0  0  0  0  0
   20.0760  -30.9947  -35.1509 C   0  0  0  0  0  0  0  0  0  0  0  0
   21.1351  -29.9295  -35.4028 C   0  0  0  0  0  0  0  0  0  0  0  0
   21.9205  -29.8175  -34.1794 N   0  0  0  0  0  0  0  0  0  0  0  0
   20.4118  -30.6420  -29.8187 N   0  0  0  0  0  0  0  0  0  0  0  0
   21.0154  -30.3426  -30.7618 C   0  0  0  0  0  0  0  0  0  0  0  0
 16 17  3  0
 17 10  1  0
 10 11  2  0
 11 12  1  0
 12 13  1  0
 13 14  1  0
 14 15  1  0
 15  1  1  0
  1  2  1  0
  2  3  2  0
  3  4  1  0
  4  5  2  0
  5  6  1  0
  5  7  1  0
  7  8  2  0
  8  9  1  0
 15 11  1  0
  8  2  1  0
M  END
> <minimizedAffinity>
-4.65055

> <CNNscore>
0.2653366327

> <CNNaffinity>
5.2097640038

> <CNN_VS>
1.3823412657

> <CNNaffinity_variance>
0.1221668199

$$$$
