


 28 29  0  0  0  0  0  0  0  0999 V2000
   24.1488   27.7647    9.5895 C   0  0  0  0  0  0  0  0  0  0  0  0
   23.8543   26.7212   10.5359 O   0  0  0  0  0  0  0  0  0  0  0  0
   22.7971   28.1630    9.0436 C   0  0  0  0  0  0  0  0  0  0  0  0
   22.2724   27.7389    7.8780 C   0  0  0  0  0  0  0  0  0  0  0  0
   23.0230   26.7236    7.0672 C   0  0  0  0  0  0  0  0  0  0  0  0
   22.5695   26.3231    5.9958 O   0  0  0  0  0  0  0  0  0  0  0  0
   24.3085   26.1392    7.6522 C   0  0  0  0  0  0  0  0  0  0  0  0
   24.0158   25.0182    8.4791 O   0  0  0  0  0  0  0  0  0  0  0  0
   25.0453   27.1916    8.4803 C   0  0  0  0  0  0  0  0  0  0  0  0
   23.2883   27.0740   11.2403 H   0  0  0  0  0  0  0  0  0  0  0  0
   23.4529   25.2992    9.2174 H   0  0  0  0  0  0  0  0  0  0  0  0
   24.8340   28.8712   10.4737 C   0  0  0  0  0  0  0  0  0  0  0  0
   26.7777   30.3465   11.2442 C   0  0  0  0  0  0  0  0  0  0  0  0
   26.3045   29.2978   10.2516 N   0  0  0  0  0  0  0  0  0  0  0  0
   27.1722   28.0432   10.4687 C   0  0  0  0  0  0  0  0  0  0  0  0
   26.5577   29.7689    8.8251 C   0  0  0  0  0  0  0  0  0  0  0  0
   20.9060   28.1404    7.3727 C   0  0  0  0  0  0  0  0  0  0  0  0
   19.7735   27.2471    7.8857 C   0  0  0  0  0  0  0  0  0  0  0  0
   19.0986   26.5303    6.7304 C   0  0  0  0  0  0  0  0  0  0  0  0
   18.1071   27.0187    6.1925 O   0  0  0  0  0  0  0  0  0  0  0  0
   19.6780   25.3129    6.4336 N   0  0  0  0  0  0  0  0  0  0  0  0
   20.4765   25.0738    6.9575 H   0  0  0  0  0  0  0  0  0  0  0  0
   19.2627   24.3703    5.4694 C   0  0  0  0  0  0  0  0  0  0  0  0
   19.8093   24.4906    4.1843 C   0  0  0  0  0  0  0  0  0  0  0  0
   19.4567   23.5946    3.1713 C   0  0  0  0  0  0  0  0  0  0  0  0
   18.5550   22.5677    3.4339 C   0  0  0  0  0  0  0  0  0  0  0  0
   18.0054   22.4388    4.7073 C   0  0  0  0  0  0  0  0  0  0  0  0
   18.3570   23.3375    5.7209 C   0  0  0  0  0  0  0  0  0  0  0  0
 13 14  1  0
 14 15  1  0
 14 16  1  0
 14 12  1  0
 12  1  1  0
  1  2  1  0
  1  3  1  0
  3  4  2  0
  4 17  1  0
 17 18  1  0
 18 19  1  0
 19 20  2  0
 19 21  1  0
 21 23  1  0
 23 24  2  0
 24 25  1  0
 25 26  2  0
 26 27  1  0
 27 28  2  0
  4  5  1  0
  5  6  2  0
  5  7  1  0
  7  8  1  0
  7  9  1  0
  9  1  1  0
 28 23  1  0
  2 10  1  0
 21 22  1  0
  8 11  1  0
M  CHG 1  14   1
M  END
> <minimizedAffinity>
-4.75123

> <CNNscore>
0.4475012720

> <CNNaffinity>
3.9514496326

> <CNN_VS>
1.7682787180

> <CNNaffinity_variance>
1.1604610682

$$$$



 28 29  0  0  0  0  0  0  0  0999 V2000
   26.9972   29.3343    9.0029 C   0  0  0  0  0  0  0  0  0  0  0  0
   27.4206   29.5469    7.6440 O   0  0  0  0  0  0  0  0  0  0  0  0
   26.0067   30.4461    9.2613 C   0  0  0  0  0  0  0  0  0  0  0  0
   26.2806   31.6000    9.8996 C   0  0  0  0  0  0  0  0  0  0  0  0
   27.6909   31.8780   10.3302 C   0  0  0  0  0  0  0  0  0  0  0  0
   27.9680   32.9217   10.9201 O   0  0  0  0  0  0  0  0  0  0  0  0
   28.7773   30.8782    9.9347 C   0  0  0  0  0  0  0  0  0  0  0  0
   29.2882   31.1821    8.6414 O   0  0  0  0  0  0  0  0  0  0  0  0
   28.2179   29.4558    9.9290 C   0  0  0  0  0  0  0  0  0  0  0  0
   26.6560   29.4721    7.0517 H   0  0  0  0  0  0  0  0  0  0  0  0
   28.5734   31.1197    7.9885 H   0  0  0  0  0  0  0  0  0  0  0  0
   26.3529   27.8995    8.9600 C   0  0  0  0  0  0  0  0  0  0  0  0
   24.4002   26.2484    8.8627 C   0  0  0  0  0  0  0  0  0  0  0  0
   24.8278   27.6856    9.1091 N   0  0  0  0  0  0  0  0  0  0  0  0
   24.4694   28.0217   10.5694 C   0  0  0  0  0  0  0  0  0  0  0  0
   24.0248   28.6337    8.2274 C   0  0  0  0  0  0  0  0  0  0  0  0
   25.2700   32.7015   10.1210 C   0  0  0  0  0  0  0  0  0  0  0  0
   25.2868   33.7793    9.0340 C   0  0  0  0  0  0  0  0  0  0  0  0
   23.8714   34.2026    8.6850 C   0  0  0  0  0  0  0  0  0  0  0  0
   22.9356   33.4200    8.8357 O   0  0  0  0  0  0  0  0  0  0  0  0
   23.8001   35.4757    8.1558 N   0  0  0  0  0  0  0  0  0  0  0  0
   24.6476   35.9748    8.1121 H   0  0  0  0  0  0  0  0  0  0  0  0
   22.6582   36.1470    7.6701 C   0  0  0  0  0  0  0  0  0  0  0  0
   22.8499   37.0470    6.6127 C   0  0  0  0  0  0  0  0  0  0  0  0
   21.7714   37.7491    6.0677 C   0  0  0  0  0  0  0  0  0  0  0  0
   20.4893   37.5568    6.5738 C   0  0  0  0  0  0  0  0  0  0  0  0
   20.2871   36.6652    7.6247 C   0  0  0  0  0  0  0  0  0  0  0  0
   21.3677   35.9639    8.1716 C   0  0  0  0  0  0  0  0  0  0  0  0
 13 14  1  0
 14 15  1  0
 14 16  1  0
 14 12  1  0
 12  1  1  0
  1  2  1  0
  1  3  1  0
  3  4  2  0
  4 17  1  0
 17 18  1  0
 18 19  1  0
 19 20  2  0
 19 21  1  0
 21 23  1  0
 23 24  2  0
 24 25  1  0
 25 26  2  0
 26 27  1  0
 27 28  2  0
  4  5  1  0
  5  6  2  0
  5  7  1  0
  7  8  1  0
  7  9  1  0
  9  1  1  0
 28 23  1  0
  2 10  1  0
 21 22  1  0
  8 11  1  0
M  CHG 1  14   1
M  END
> <minimizedAffinity>
-4.86647

> <CNNscore>
0.4225544631

> <CNNaffinity>
3.5943868160

> <CNN_VS>
1.5188242197

> <CNNaffinity_variance>
0.3744620979

$$$$



 28 29  0  0  0  0  0  0  0  0999 V2000
   26.2842   29.2655   10.4835 C   0  0  0  0  0  0  0  0  0  0  0  0
   26.0408   29.0380   11.8836 O   0  0  0  0  0  0  0  0  0  0  0  0
   24.9277   29.0970    9.8389 C   0  0  0  0  0  0  0  0  0  0  0  0
   24.4926   27.9823    9.2207 C   0  0  0  0  0  0  0  0  0  0  0  0
   25.3628   26.7599    9.2240 C   0  0  0  0  0  0  0  0  0  0  0  0
   24.9923   25.7299    8.6620 O   0  0  0  0  0  0  0  0  0  0  0  0
   26.6677   26.8043   10.0186 C   0  0  0  0  0  0  0  0  0  0  0  0
   26.4382   26.4417   11.3758 O   0  0  0  0  0  0  0  0  0  0  0  0
   27.2740   28.2066    9.9722 C   0  0  0  0  0  0  0  0  0  0  0  0
   25.4166   29.7022   12.2154 H   0  0  0  0  0  0  0  0  0  0  0  0
   25.8217   27.0727   11.7792 H   0  0  0  0  0  0  0  0  0  0  0  0
   26.8319   30.7401   10.4473 C   0  0  0  0  0  0  0  0  0  0  0  0
   28.4001   32.3827    9.2680 C   0  0  0  0  0  0  0  0  0  0  0  0
   27.2240   31.4320    9.1201 N   0  0  0  0  0  0  0  0  0  0  0  0
   27.6592   30.3196    8.1470 C   0  0  0  0  0  0  0  0  0  0  0  0
   26.0445   32.1479    8.4741 C   0  0  0  0  0  0  0  0  0  0  0  0
   23.1195   27.8406    8.6058 C   0  0  0  0  0  0  0  0  0  0  0  0
   23.1206   27.9069    7.0764 C   0  0  0  0  0  0  0  0  0  0  0  0
   22.3277   26.7505    6.4948 C   0  0  0  0  0  0  0  0  0  0  0  0
   22.3377   25.6524    7.0472 O   0  0  0  0  0  0  0  0  0  0  0  0
   21.6916   27.0687    5.3117 N   0  0  0  0  0  0  0  0  0  0  0  0
   21.7785   28.0019    5.0103 H   0  0  0  0  0  0  0  0  0  0  0  0
   20.9317   26.2166    4.4826 C   0  0  0  0  0  0  0  0  0  0  0  0
   20.9152   26.5100    3.1121 C   0  0  0  0  0  0  0  0  0  0  0  0
   20.1928   25.7132    2.2196 C   0  0  0  0  0  0  0  0  0  0  0  0
   19.4808   24.6134    2.6888 C   0  0  0  0  0  0  0  0  0  0  0  0
   19.4899   24.3126    4.0488 C   0  0  0  0  0  0  0  0  0  0  0  0
   20.2116   25.1120    4.9425 C   0  0  0  0  0  0  0  0  0  0  0  0
 13 14  1  0
 14 15  1  0
 14 16  1  0
 14 12  1  0
 12  1  1  0
  1  2  1  0
  1  3  1  0
  3  4  2  0
  4 17  1  0
 17 18  1  0
 18 19  1  0
 19 20  2  0
 19 21  1  0
 21 23  1  0
 23 24  2  0
 24 25  1  0
 25 26  2  0
 26 27  1  0
 27 28  2  0
  4  5  1  0
  5  6  2  0
  5  7  1  0
  7  8  1  0
  7  9  1  0
  9  1  1  0
 28 23  1  0
  2 10  1  0
 21 22  1  0
  8 11  1  0
M  CHG 1  14   1
M  END
> <minimizedAffinity>
-5.86968

> <CNNscore>
0.4087646604

> <CNNaffinity>
4.0003743172

> <CNN_VS>
1.6352117062

> <CNNaffinity_variance>
1.0946775675

$$$$



 28 29  0  0  0  0  0  0  0  0999 V2000
   26.8664   29.7027    9.5947 C   0  0  0  0  0  0  0  0  0  0  0  0
   26.5314   30.1593   10.9178 O   0  0  0  0  0  0  0  0  0  0  0  0
   25.5358   29.3299    8.9828 C   0  0  0  0  0  0  0  0  0  0  0  0
   25.0372   28.0812    8.9049 C   0  0  0  0  0  0  0  0  0  0  0  0
   25.7953   26.9526    9.5399 C   0  0  0  0  0  0  0  0  0  0  0  0
   25.3655   25.8013    9.4789 O   0  0  0  0  0  0  0  0  0  0  0  0
   27.0559   27.2873   10.3368 C   0  0  0  0  0  0  0  0  0  0  0  0
   26.7249   27.6036   11.6846 O   0  0  0  0  0  0  0  0  0  0  0  0
   27.7847   28.4755    9.7096 C   0  0  0  0  0  0  0  0  0  0  0  0
   25.9515   30.9343   10.8553 H   0  0  0  0  0  0  0  0  0  0  0  0
   26.1461   28.3818   11.7013 H   0  0  0  0  0  0  0  0  0  0  0  0
   27.5428   30.9627    8.9386 C   0  0  0  0  0  0  0  0  0  0  0  0
   29.9321   31.8573    8.7403 C   0  0  0  0  0  0  0  0  0  0  0  0
   28.7063   31.7151    9.6271 N   0  0  0  0  0  0  0  0  0  0  0  0
   28.2002   33.1377    9.9334 C   0  0  0  0  0  0  0  0  0  0  0  0
   29.0895   31.0855   10.9604 C   0  0  0  0  0  0  0  0  0  0  0  0
   23.6909   27.7468    8.3056 C   0  0  0  0  0  0  0  0  0  0  0  0
   23.7788   27.0593    6.9406 C   0  0  0  0  0  0  0  0  0  0  0  0
   22.3906   26.8391    6.3673 C   0  0  0  0  0  0  0  0  0  0  0  0
   21.7905   25.7883    6.5833 O   0  0  0  0  0  0  0  0  0  0  0  0
   21.9573   27.8847    5.5769 N   0  0  0  0  0  0  0  0  0  0  0  0
   22.5603   28.6605    5.5157 H   0  0  0  0  0  0  0  0  0  0  0  0
   20.7536   27.9746    4.8463 C   0  0  0  0  0  0  0  0  0  0  0  0
   19.8307   28.9467    5.2562 C   0  0  0  0  0  0  0  0  0  0  0  0
   18.6161   29.1073    4.5836 C   0  0  0  0  0  0  0  0  0  0  0  0
   18.3130   28.2981    3.4928 C   0  0  0  0  0  0  0  0  0  0  0  0
   19.2225   27.3286    3.0769 C   0  0  0  0  0  0  0  0  0  0  0  0
   20.4377   27.1666    3.7519 C   0  0  0  0  0  0  0  0  0  0  0  0
 13 14  1  0
 14 15  1  0
 14 16  1  0
 14 12  1  0
 12  1  1  0
  1  2  1  0
  1  3  1  0
  3  4  2  0
  4 17  1  0
 17 18  1  0
 18 19  1  0
 19 20  2  0
 19 21  1  0
 21 23  1  0
 23 24  2  0
 24 25  1  0
 25 26  2  0
 26 27  1  0
 27 28  2  0
  4  5  1  0
  5  6  2  0
  5  7  1  0
  7  8  1  0
  7  9  1  0
  9  1  1  0
 28 23  1  0
  2 10  1  0
 21 22  1  0
  8 11  1  0
M  CHG 1  14   1
M  END
> <minimizedAffinity>
-5.38987

> <CNNscore>
0.3364884257

> <CNNaffinity>
3.8821132183

> <CNN_VS>
1.3062862158

> <CNNaffinity_variance>
0.8152857423

$$$$



 28 29  0  0  0  0  0  0  0  0999 V2000
   24.6627   28.3658    9.7583 C   0  0  0  0  0  0  0  0  0  0  0  0
   23.4675   28.5777   10.5315 O   0  0  0  0  0  0  0  0  0  0  0  0
   24.1659   28.2260    8.3379 C   0  0  0  0  0  0  0  0  0  0  0  0
   23.9662   27.0599    7.6942 C   0  0  0  0  0  0  0  0  0  0  0  0
   24.1612   25.7726    8.4402 C   0  0  0  0  0  0  0  0  0  0  0  0
   23.9910   24.6930    7.8750 O   0  0  0  0  0  0  0  0  0  0  0  0
   24.4828   25.8443    9.9328 C   0  0  0  0  0  0  0  0  0  0  0  0
   23.2849   25.9139   10.6985 O   0  0  0  0  0  0  0  0  0  0  0  0
   25.3413   27.0720   10.2360 C   0  0  0  0  0  0  0  0  0  0  0  0
   23.0320   29.3928   10.2369 H   0  0  0  0  0  0  0  0  0  0  0  0
   22.7950   26.7165   10.4601 H   0  0  0  0  0  0  0  0  0  0  0  0
   25.4979   29.6735   10.0191 C   0  0  0  0  0  0  0  0  0  0  0  0
   26.8672   31.1484    8.4386 C   0  0  0  0  0  0  0  0  0  0  0  0
   26.8626   29.9199    9.3330 N   0  0  0  0  0  0  0  0  0  0  0  0
   27.8885   30.1713   10.4547 C   0  0  0  0  0  0  0  0  0  0  0  0
   27.3453   28.7007    8.5575 C   0  0  0  0  0  0  0  0  0  0  0  0
   23.4462   26.9563    6.2792 C   0  0  0  0  0  0  0  0  0  0  0  0
   21.9907   27.4047    6.1243 C   0  0  0  0  0  0  0  0  0  0  0  0
   21.2389   26.4581    5.2061 C   0  0  0  0  0  0  0  0  0  0  0  0
   20.8133   25.3873    5.6341 O   0  0  0  0  0  0  0  0  0  0  0  0
   21.1618   26.9112    3.9043 N   0  0  0  0  0  0  0  0  0  0  0  0
   21.5486   27.7997    3.7311 H   0  0  0  0  0  0  0  0  0  0  0  0
   20.5948   26.2532    2.7924 C   0  0  0  0  0  0  0  0  0  0  0  0
   20.0203   24.9953    3.0215 C   0  0  0  0  0  0  0  0  0  0  0  0
   19.4312   24.2780    1.9765 C   0  0  0  0  0  0  0  0  0  0  0  0
   19.4092   24.8126    0.6918 C   0  0  0  0  0  0  0  0  0  0  0  0
   19.9775   26.0616    0.4526 C   0  0  0  0  0  0  0  0  0  0  0  0
   20.5692   26.7786    1.4988 C   0  0  0  0  0  0  0  0  0  0  0  0
 13 14  1  0
 14 15  1  0
 14 16  1  0
 14 12  1  0
 12  1  1  0
  1  2  1  0
  1  3  1  0
  3  4  2  0
  4 17  1  0
 17 18  1  0
 18 19  1  0
 19 20  2  0
 19 21  1  0
 21 23  1  0
 23 24  2  0
 24 25  1  0
 25 26  2  0
 26 27  1  0
 27 28  2  0
  4  5  1  0
  5  6  2  0
  5  7  1  0
  7  8  1  0
  7  9  1  0
  9  1  1  0
 28 23  1  0
  2 10  1  0
 21 22  1  0
  8 11  1  0
M  CHG 1  14   1
M  END
> <minimizedAffinity>
-5.87098

> <CNNscore>
0.3220814168

> <CNNaffinity>
4.1589350700

> <CNN_VS>
1.3395156860

> <CNNaffinity_variance>
0.3129256666

$$$$



 28 29  0  0  0  0  0  0  0  0999 V2000
   23.3185   29.1681    9.3233 C   0  0  0  0  0  0  0  0  0  0  0  0
   22.6468   28.8830    8.0828 O   0  0  0  0  0  0  0  0  0  0  0  0
   24.7802   29.2392    8.9459 C   0  0  0  0  0  0  0  0  0  0  0  0
   25.6732   28.2427    9.0993 C   0  0  0  0  0  0  0  0  0  0  0  0
   25.2002   26.9112    9.6043 C   0  0  0  0  0  0  0  0  0  0  0  0
   25.9956   25.9852    9.7592 O   0  0  0  0  0  0  0  0  0  0  0  0
   23.7011   26.7147    9.8286 C   0  0  0  0  0  0  0  0  0  0  0  0
   23.0669   26.2972    8.6246 O   0  0  0  0  0  0  0  0  0  0  0  0
   23.0574   28.0160   10.3066 C   0  0  0  0  0  0  0  0  0  0  0  0
   22.8061   29.6054    7.4554 H   0  0  0  0  0  0  0  0  0  0  0  0
   23.1799   26.9808    7.9458 H   0  0  0  0  0  0  0  0  0  0  0  0
   22.7016   30.5484    9.7589 C   0  0  0  0  0  0  0  0  0  0  0  0
   20.8553   32.0879   10.6363 C   0  0  0  0  0  0  0  0  0  0  0  0
   21.2363   30.6711   10.2403 N   0  0  0  0  0  0  0  0  0  0  0  0
   20.3400   30.2757    9.0511 C   0  0  0  0  0  0  0  0  0  0  0  0
   20.9198   29.7031   11.3733 C   0  0  0  0  0  0  0  0  0  0  0  0
   27.1245   28.3406    8.6896 C   0  0  0  0  0  0  0  0  0  0  0  0
   27.9872   29.1415    9.6682 C   0  0  0  0  0  0  0  0  0  0  0  0
   28.3622   30.4845    9.0681 C   0  0  0  0  0  0  0  0  0  0  0  0
   28.0535   30.7531    7.9090 O   0  0  0  0  0  0  0  0  0  0  0  0
   29.0981   31.2765    9.9266 N   0  0  0  0  0  0  0  0  0  0  0  0
   29.2506   30.9125   10.8285 H   0  0  0  0  0  0  0  0  0  0  0  0
   29.6579   32.5451    9.6660 C   0  0  0  0  0  0  0  0  0  0  0  0
   28.9287   33.6632   10.0939 C   0  0  0  0  0  0  0  0  0  0  0  0
   29.4139   34.9566    9.8814 C   0  0  0  0  0  0  0  0  0  0  0  0
   30.6346   35.1448    9.2403 C   0  0  0  0  0  0  0  0  0  0  0  0
   31.3675   34.0410    8.8106 C   0  0  0  0  0  0  0  0  0  0  0  0
   30.8804   32.7461    9.0216 C   0  0  0  0  0  0  0  0  0  0  0  0
 13 14  1  0
 14 15  1  0
 14 16  1  0
 14 12  1  0
 12  1  1  0
  1  2  1  0
  1  3  1  0
  3  4  2  0
  4 17  1  0
 17 18  1  0
 18 19  1  0
 19 20  2  0
 19 21  1  0
 21 23  1  0
 23 24  2  0
 24 25  1  0
 25 26  2  0
 26 27  1  0
 27 28  2  0
  4  5  1  0
  5  6  2  0
  5  7  1  0
  7  8  1  0
  7  9  1  0
  9  1  1  0
 28 23  1  0
  2 10  1  0
 21 22  1  0
  8 11  1  0
M  CHG 1  14   1
M  END
> <minimizedAffinity>
-5.13840

> <CNNscore>
0.3109303117

> <CNNaffinity>
3.5180609226

> <CNN_VS>
1.0938718319

> <CNNaffinity_variance>
0.6617061496

$$$$



 28 29  0  0  0  0  0  0  0  0999 V2000
   27.3816   31.1828    9.9040 C   0  0  0  0  0  0  0  0  0  0  0  0
   28.3677   30.8506   10.8982 O   0  0  0  0  0  0  0  0  0  0  0  0
   26.0911   30.6278   10.4611 C   0  0  0  0  0  0  0  0  0  0  0  0
   25.5341   29.4523   10.1118 C   0  0  0  0  0  0  0  0  0  0  0  0
   26.2653   28.5540    9.1579 C   0  0  0  0  0  0  0  0  0  0  0  0
   25.7769   27.4772    8.8175 O   0  0  0  0  0  0  0  0  0  0  0  0
   27.6630   28.9707    8.7005 C   0  0  0  0  0  0  0  0  0  0  0  0
   28.6465   28.5154    9.6232 O   0  0  0  0  0  0  0  0  0  0  0  0
   27.7551   30.4919    8.5827 C   0  0  0  0  0  0  0  0  0  0  0  0
   28.1401   31.2826   11.7363 H   0  0  0  0  0  0  0  0  0  0  0  0
   28.4851   28.9160   10.4917 H   0  0  0  0  0  0  0  0  0  0  0  0
   27.4343   32.7545    9.8543 C   0  0  0  0  0  0  0  0  0  0  0  0
   26.4800   34.9969    9.0738 C   0  0  0  0  0  0  0  0  0  0  0  0
   26.1677   33.6053    9.5982 N   0  0  0  0  0  0  0  0  0  0  0  0
   25.3551   32.8812    8.5077 C   0  0  0  0  0  0  0  0  0  0  0  0
   25.2750   33.6933   10.8296 C   0  0  0  0  0  0  0  0  0  0  0  0
   24.2523   28.9168   10.7067 C   0  0  0  0  0  0  0  0  0  0  0  0
   23.0182   29.7558   10.3654 C   0  0  0  0  0  0  0  0  0  0  0  0
   22.1656   29.0475    9.3283 C   0  0  0  0  0  0  0  0  0  0  0  0
   21.0116   28.7186    9.5948 O   0  0  0  0  0  0  0  0  0  0  0  0
   22.8422   28.7904    8.1527 N   0  0  0  0  0  0  0  0  0  0  0  0
   23.7640   29.1320    8.0996 H   0  0  0  0  0  0  0  0  0  0  0  0
   22.3707   28.0967    7.0182 C   0  0  0  0  0  0  0  0  0  0  0  0
   23.0935   26.9644    6.6180 C   0  0  0  0  0  0  0  0  0  0  0  0
   22.6915   26.2157    5.5084 C   0  0  0  0  0  0  0  0  0  0  0  0
   21.5611   26.5910    4.7886 C   0  0  0  0  0  0  0  0  0  0  0  0
   20.8354   27.7147    5.1771 C   0  0  0  0  0  0  0  0  0  0  0  0
   21.2394   28.4654    6.2870 C   0  0  0  0  0  0  0  0  0  0  0  0
 13 14  1  0
 14 15  1  0
 14 16  1  0
 14 12  1  0
 12  1  1  0
  1  2  1  0
  1  3  1  0
  3  4  2  0
  4 17  1  0
 17 18  1  0
 18 19  1  0
 19 20  2  0
 19 21  1  0
 21 23  1  0
 23 24  2  0
 24 25  1  0
 25 26  2  0
 26 27  1  0
 27 28  2  0
  4  5  1  0
  5  6  2  0
  5  7  1  0
  7  8  1  0
  7  9  1  0
  9  1  1  0
 28 23  1  0
  2 10  1  0
 21 22  1  0
  8 11  1  0
M  CHG 1  14   1
M  END
> <minimizedAffinity>
-4.86987

> <CNNscore>
0.2832888663

> <CNNaffinity>
3.6919534206

> <CNN_VS>
1.0458892584

> <CNNaffinity_variance>
0.9931246638

$$$$



 28 29  0  0  0  0  0  0  0  0999 V2000
   19.8944   26.4449    1.8397 C   0  0  0  0  0  0  0  0  0  0  0  0
   21.0230   25.9395    1.1033 O   0  0  0  0  0  0  0  0  0  0  0  0
   20.4603   26.7847    3.1991 C   0  0  0  0  0  0  0  0  0  0  0  0
   20.3772   26.0050    4.2941 C   0  0  0  0  0  0  0  0  0  0  0  0
   19.7537   24.6453    4.1753 C   0  0  0  0  0  0  0  0  0  0  0  0
   19.6598   23.9146    5.1608 O   0  0  0  0  0  0  0  0  0  0  0  0
   19.3287   24.1643    2.7881 C   0  0  0  0  0  0  0  0  0  0  0  0
   20.4198   23.5399    2.1205 O   0  0  0  0  0  0  0  0  0  0  0  0
   18.8328   25.3383    1.9443 C   0  0  0  0  0  0  0  0  0  0  0  0
   21.6988   26.6317    1.0321 H   0  0  0  0  0  0  0  0  0  0  0  0
   21.1387   24.1810    2.0065 H   0  0  0  0  0  0  0  0  0  0  0  0
   19.4476   27.6984    1.0002 C   0  0  0  0  0  0  0  0  0  0  0  0
   18.4843   26.7696   -1.1811 C   0  0  0  0  0  0  0  0  0  0  0  0
   19.4997   27.7050   -0.5461 N   0  0  0  0  0  0  0  0  0  0  0  0
   19.1459   29.1343   -0.9997 C   0  0  0  0  0  0  0  0  0  0  0  0
   20.8964   27.4060   -1.0761 C   0  0  0  0  0  0  0  0  0  0  0  0
   20.9752   26.3665    5.6340 C   0  0  0  0  0  0  0  0  0  0  0  0
   22.4622   26.7241    5.5677 C   0  0  0  0  0  0  0  0  0  0  0  0
   23.1689   26.2916    6.8396 C   0  0  0  0  0  0  0  0  0  0  0  0
   22.8167   25.2715    7.4280 O   0  0  0  0  0  0  0  0  0  0  0  0
   24.1495   27.1755    7.2435 N   0  0  0  0  0  0  0  0  0  0  0  0
   24.3126   27.9430    6.6489 H   0  0  0  0  0  0  0  0  0  0  0  0
   24.9458   27.1105    8.4064 C   0  0  0  0  0  0  0  0  0  0  0  0
   24.4707   26.3179    9.4603 C   0  0  0  0  0  0  0  0  0  0  0  0
   25.2004   26.1933   10.6457 C   0  0  0  0  0  0  0  0  0  0  0  0
   26.4141   26.8591   10.7885 C   0  0  0  0  0  0  0  0  0  0  0  0
   26.8957   27.6499    9.7478 C   0  0  0  0  0  0  0  0  0  0  0  0
   26.1637   27.7760    8.5617 C   0  0  0  0  0  0  0  0  0  0  0  0
 13 14  1  0
 14 15  1  0
 14 16  1  0
 14 12  1  0
 12  1  1  0
  1  2  1  0
  1  3  1  0
  3  4  2  0
  4 17  1  0
 17 18  1  0
 18 19  1  0
 19 20  2  0
 19 21  1  0
 21 23  1  0
 23 24  2  0
 24 25  1  0
 25 26  2  0
 26 27  1  0
 27 28  2  0
  4  5  1  0
  5  6  2  0
  5  7  1  0
  7  8  1  0
  7  9  1  0
  9  1  1  0
 28 23  1  0
  2 10  1  0
 21 22  1  0
  8 11  1  0
M  CHG 1  14   1
M  END
> <minimizedAffinity>
-6.23173

> <CNNscore>
0.2607558072

> <CNNaffinity>
3.7034671307

> <CNN_VS>
0.9657005668

> <CNNaffinity_variance>
0.5113602281

$$$$



 28 29  0  0  0  0  0  0  0  0999 V2000
   22.5435   27.2536    8.8622 C   0  0  0  0  0  0  0  0  0  0  0  0
   22.4155   26.7315    7.5272 O   0  0  0  0  0  0  0  0  0  0  0  0
   23.7244   28.1932    8.7816 C   0  0  0  0  0  0  0  0  0  0  0  0
   24.9833   27.8953    9.1564 C   0  0  0  0  0  0  0  0  0  0  0  0
   25.2963   26.5023    9.6180 C   0  0  0  0  0  0  0  0  0  0  0  0
   26.4367   26.2045    9.9715 O   0  0  0  0  0  0  0  0  0  0  0  0
   24.1883   25.4518    9.5472 C   0  0  0  0  0  0  0  0  0  0  0  0
   24.1607   24.8416    8.2615 O   0  0  0  0  0  0  0  0  0  0  0  0
   22.8279   26.0905    9.8260 C   0  0  0  0  0  0  0  0  0  0  0  0
   22.2357   27.4590    6.9114 H   0  0  0  0  0  0  0  0  0  0  0  0
   23.9768   25.5149    7.5879 H   0  0  0  0  0  0  0  0  0  0  0  0
   21.1659   27.9752    9.1013 C   0  0  0  0  0  0  0  0  0  0  0  0
   19.8101   25.8135    9.2943 C   0  0  0  0  0  0  0  0  0  0  0  0
   19.8168   27.2639    8.8411 N   0  0  0  0  0  0  0  0  0  0  0  0
   18.7526   28.0044    9.6735 C   0  0  0  0  0  0  0  0  0  0  0  0
   19.3857   27.3634    7.3832 C   0  0  0  0  0  0  0  0  0  0  0  0
   26.1464   28.8532    9.0408 C   0  0  0  0  0  0  0  0  0  0  0  0
   25.7838   30.1838    8.3763 C   0  0  0  0  0  0  0  0  0  0  0  0
   26.8055   31.2492    8.7304 C   0  0  0  0  0  0  0  0  0  0  0  0
   26.5762   32.4323    8.4883 O   0  0  0  0  0  0  0  0  0  0  0  0
   27.9672   30.7308    9.2665 N   0  0  0  0  0  0  0  0  0  0  0  0
   27.9838   29.7561    9.4039 H   0  0  0  0  0  0  0  0  0  0  0  0
   29.1336   31.4307    9.6411 C   0  0  0  0  0  0  0  0  0  0  0  0
   29.4012   31.5347   11.0131 C   0  0  0  0  0  0  0  0  0  0  0  0
   30.5387   32.2058   11.4703 C   0  0  0  0  0  0  0  0  0  0  0  0
   31.4214   32.7784   10.5594 C   0  0  0  0  0  0  0  0  0  0  0  0
   31.1653   32.6815    9.1937 C   0  0  0  0  0  0  0  0  0  0  0  0
   30.0250   32.0113    8.7363 C   0  0  0  0  0  0  0  0  0  0  0  0
 13 14  1  0
 14 15  1  0
 14 16  1  0
 14 12  1  0
 12  1  1  0
  1  2  1  0
  1  3  1  0
  3  4  2  0
  4 17  1  0
 17 18  1  0
 18 19  1  0
 19 20  2  0
 19 21  1  0
 21 23  1  0
 23 24  2  0
 24 25  1  0
 25 26  2  0
 26 27  1  0
 27 28  2  0
  4  5  1  0
  5  6  2  0
  5  7  1  0
  7  8  1  0
  7  9  1  0
  9  1  1  0
 28 23  1  0
  2 10  1  0
 21 22  1  0
  8 11  1  0
M  CHG 1  14   1
M  END
> <minimizedAffinity>
-5.17508

> <CNNscore>
0.2582689226

> <CNNaffinity>
4.0310101509

> <CNN_VS>
1.0410846472

> <CNNaffinity_variance>
0.3016293943

$$$$
