


 27 30  0  0  0  0  0  0  0  0999 V2000
    8.6607   57.5818   -0.4426 C   0  0  0  0  0  0  0  0  0  0  0  0
    8.7022   58.8520   -0.8291 N   0  0  0  0  0  0  0  0  0  0  0  0
    7.5316   59.4144   -0.4131 C   0  0  0  0  0  0  0  0  0  0  0  0
    7.0290   60.7207   -0.5518 C   0  0  0  0  0  0  0  0  0  0  0  0
    5.8049   61.0962   -0.0744 N   0  0  0  0  0  0  0  0  0  0  0  0
    5.1135   60.1172    0.5317 C   0  0  0  0  0  0  0  0  0  0  0  0
    3.8676   60.2160    1.0824 N   0  0  0  0  0  0  0  0  0  0  0  0
    3.4931   58.9922    1.5951 C   0  0  0  0  0  0  0  0  0  0  0  0
    4.5195   58.0878    1.3744 C   0  0  0  0  0  0  0  0  0  0  0  0
    5.5359   58.8173    0.7088 C   0  0  0  0  0  0  0  0  0  0  0  0
    6.7690   58.4638    0.2371 C   0  0  0  0  0  0  0  0  0  0  0  0
    7.4809   57.3046    0.2529 N   0  0  0  0  0  0  0  0  0  0  0  0
    3.3214   61.0346    1.1092 H   0  0  0  0  0  0  0  0  0  0  0  0
    7.0603   56.0416    0.8544 C   0  0  0  0  0  0  0  0  0  0  0  0
    7.0838   54.8831   -0.1607 C   0  0  0  0  0  0  0  0  0  0  0  0
    7.3298   53.5173    0.4842 C   0  0  0  0  0  0  0  0  0  0  0  0
    6.6090   53.3269    1.8307 C   0  0  0  0  0  0  0  0  0  0  0  0
    6.9280   54.4729    2.8182 C   0  0  0  0  0  0  0  0  0  0  0  0
    7.7077   55.6320    2.1850 C   0  0  0  0  0  0  0  0  0  0  0  0
    5.0872   53.1407    1.6179 C   0  0  0  0  0  0  0  0  0  0  0  0
    4.6783   51.7511    1.1120 C   0  0  0  0  0  0  0  0  0  0  0  0
    3.7907   51.0578    2.0556 C   0  0  0  0  0  0  0  0  0  0  0  0
    3.0869   50.5078    2.7958 N   0  0  0  0  0  0  0  0  0  0  0  0
   10.6890   57.1472   -1.8718 C   0  0  0  0  0  0  0  0  0  0  0  0
    9.7943   56.6439   -0.7533 C   0  0  0  0  0  0  0  0  0  0  0  0
   10.6023   56.5633    0.4310 O   0  0  0  0  0  0  0  0  0  0  0  0
   10.9439   57.4443    0.6500 H   0  0  0  0  0  0  0  0  0  0  0  0
 25 24  1  0
 25 26  1  0
 25  1  1  0
  1  2  2  0
  2  3  1  0
  3  4  2  0
  4  5  1  0
  5  6  2  0
  6  7  1  0
  7  8  1  0
  8  9  2  0
  9 10  1  0
 10 11  2  0
 11 12  1  0
 14 12  1  0
 14 15  1  0
 15 16  1  0
 16 17  1  0
 17 20  1  0
 20 21  1  0
 21 22  1  0
 22 23  3  0
 17 18  1  0
 18 19  1  0
 12  1  1  0
 19 14  1  0
 11  3  1  0
 10  6  1  0
 26 27  1  0
  7 13  1  0
M  END
> <minimizedAffinity>
-8.96733

> <CNNscore>
0.9969527125

> <CNNaffinity>
8.4126176834

> <CNN_VS>
8.3869819641

> <CNNaffinity_variance>
0.0672649667

$$$$



 27 30  0  0  0  0  0  0  0  0999 V2000
    8.7041   57.9262   -0.8196 C   0  0  0  0  0  0  0  0  0  0  0  0
    8.5594   59.2137   -1.1130 N   0  0  0  0  0  0  0  0  0  0  0  0
    7.3682   59.5958   -0.5703 C   0  0  0  0  0  0  0  0  0  0  0  0
    6.7016   60.8342   -0.5741 C   0  0  0  0  0  0  0  0  0  0  0  0
    5.4851   61.0207    0.0199 N   0  0  0  0  0  0  0  0  0  0  0  0
    4.9699   59.9253    0.6017 C   0  0  0  0  0  0  0  0  0  0  0  0
    3.7715   59.8302    1.2498 N   0  0  0  0  0  0  0  0  0  0  0  0
    3.5916   58.5386    1.6970 C   0  0  0  0  0  0  0  0  0  0  0  0
    4.6978   57.7872    1.3340 C   0  0  0  0  0  0  0  0  0  0  0  0
    5.5597   58.6805    0.6501 C   0  0  0  0  0  0  0  0  0  0  0  0
    6.7828   58.5167    0.0628 C   0  0  0  0  0  0  0  0  0  0  0  0
    7.6285   57.4581   -0.0604 N   0  0  0  0  0  0  0  0  0  0  0  0
    3.1344   60.5698    1.3778 H   0  0  0  0  0  0  0  0  0  0  0  0
    7.4152   56.1161    0.4756 C   0  0  0  0  0  0  0  0  0  0  0  0
    7.4027   56.1054    2.0160 C   0  0  0  0  0  0  0  0  0  0  0  0
    6.5514   54.9795    2.6073 C   0  0  0  0  0  0  0  0  0  0  0  0
    6.6650   53.6479    1.8438 C   0  0  0  0  0  0  0  0  0  0  0  0
    6.3792   53.8266    0.3350 C   0  0  0  0  0  0  0  0  0  0  0  0
    6.2535   55.2924   -0.0985 C   0  0  0  0  0  0  0  0  0  0  0  0
    8.0356   52.9785    2.1074 C   0  0  0  0  0  0  0  0  0  0  0  0
    8.9725   52.9416    0.8929 C   0  0  0  0  0  0  0  0  0  0  0  0
   10.2019   53.7137    1.1189 C   0  0  0  0  0  0  0  0  0  0  0  0
   11.1725   54.3218    1.3034 N   0  0  0  0  0  0  0  0  0  0  0  0
   10.7290   57.9139   -2.3179 C   0  0  0  0  0  0  0  0  0  0  0  0
    9.9129   57.1610   -1.2827 C   0  0  0  0  0  0  0  0  0  0  0  0
   10.7533   56.9779   -0.1328 O   0  0  0  0  0  0  0  0  0  0  0  0
   11.0158   57.8437    0.2170 H   0  0  0  0  0  0  0  0  0  0  0  0
 25 24  1  0
 25 26  1  0
 25  1  1  0
  1  2  2  0
  2  3  1  0
  3  4  2  0
  4  5  1  0
  5  6  2  0
  6  7  1  0
  7  8  1  0
  8  9  2  0
  9 10  1  0
 10 11  2  0
 11 12  1  0
 14 12  1  0
 14 15  1  0
 15 16  1  0
 16 17  1  0
 17 20  1  0
 20 21  1  0
 21 22  1  0
 22 23  3  0
 17 18  1  0
 18 19  1  0
 12  1  1  0
 19 14  1  0
 11  3  1  0
 10  6  1  0
 26 27  1  0
  7 13  1  0
M  END
> <minimizedAffinity>
-9.16627

> <CNNscore>
0.9904895425

> <CNNaffinity>
8.0735092163

> <CNN_VS>
7.9967265129

> <CNNaffinity_variance>
0.0049288068

$$$$



 27 30  0  0  0  0  0  0  0  0999 V2000
    8.8908   57.7259   -0.9183 C   0  0  0  0  0  0  0  0  0  0  0  0
    8.6038   58.9891   -1.2123 N   0  0  0  0  0  0  0  0  0  0  0  0
    7.3885   59.2440   -0.6489 C   0  0  0  0  0  0  0  0  0  0  0  0
    6.5931   60.4040   -0.6437 C   0  0  0  0  0  0  0  0  0  0  0  0
    5.3745   60.4619   -0.0281 N   0  0  0  0  0  0  0  0  0  0  0  0
    4.9901   59.3203    0.5659 C   0  0  0  0  0  0  0  0  0  0  0  0
    3.8205   59.1005    1.2360 N   0  0  0  0  0  0  0  0  0  0  0  0
    3.7880   57.7990    1.6897 C   0  0  0  0  0  0  0  0  0  0  0  0
    4.9616   57.1687    1.3085 C   0  0  0  0  0  0  0  0  0  0  0  0
    5.7105   58.1460    0.6067 C   0  0  0  0  0  0  0  0  0  0  0  0
    6.9335   58.1113   -0.0024 C   0  0  0  0  0  0  0  0  0  0  0  0
    7.8853   57.1488   -0.1383 N   0  0  0  0  0  0  0  0  0  0  0  0
    3.1103   59.7682    1.3737 H   0  0  0  0  0  0  0  0  0  0  0  0
    7.8265   55.7941    0.4050 C   0  0  0  0  0  0  0  0  0  0  0  0
    7.8640   55.7880    1.9450 C   0  0  0  0  0  0  0  0  0  0  0  0
    7.1507   54.5837    2.5637 C   0  0  0  0  0  0  0  0  0  0  0  0
    7.3748   53.2677    1.7978 C   0  0  0  0  0  0  0  0  0  0  0  0
    7.0246   53.4107    0.2988 C   0  0  0  0  0  0  0  0  0  0  0  0
    6.7370   54.8546   -0.1313 C   0  0  0  0  0  0  0  0  0  0  0  0
    8.8139   52.7420    2.0178 C   0  0  0  0  0  0  0  0  0  0  0  0
    8.9382   51.2129    2.0451 C   0  0  0  0  0  0  0  0  0  0  0  0
    8.9473   50.6345    0.6945 C   0  0  0  0  0  0  0  0  0  0  0  0
    8.9596   50.1744   -0.3704 N   0  0  0  0  0  0  0  0  0  0  0  0
   10.5729   57.5628   -2.7862 C   0  0  0  0  0  0  0  0  0  0  0  0
   10.1661   57.0923   -1.4014 C   0  0  0  0  0  0  0  0  0  0  0  0
   11.2017   57.5012   -0.4945 O   0  0  0  0  0  0  0  0  0  0  0  0
   11.2795   58.4680   -0.5072 H   0  0  0  0  0  0  0  0  0  0  0  0
 25 24  1  0
 25 26  1  0
 25  1  1  0
  1  2  2  0
  2  3  1  0
  3  4  2  0
  4  5  1  0
  5  6  2  0
  6  7  1  0
  7  8  1  0
  8  9  2  0
  9 10  1  0
 10 11  2  0
 11 12  1  0
 14 12  1  0
 14 15  1  0
 15 16  1  0
 16 17  1  0
 17 20  1  0
 20 21  1  0
 21 22  1  0
 22 23  3  0
 17 18  1  0
 18 19  1  0
 12  1  1  0
 19 14  1  0
 11  3  1  0
 10  6  1  0
 26 27  1  0
  7 13  1  0
M  END
> <minimizedAffinity>
-8.22207

> <CNNscore>
0.9137878418

> <CNNaffinity>
7.6873283386

> <CNN_VS>
7.0245871544

> <CNNaffinity_variance>
0.0300595369

$$$$



 27 30  0  0  0  0  0  0  0  0999 V2000
    6.0543   56.4405    1.7148 C   0  0  0  0  0  0  0  0  0  0  0  0
    5.2345   57.4789    1.5954 N   0  0  0  0  0  0  0  0  0  0  0  0
    5.8509   58.3547    0.7513 C   0  0  0  0  0  0  0  0  0  0  0  0
    5.4563   59.6180    0.2751 C   0  0  0  0  0  0  0  0  0  0  0  0
    6.2313   60.3658   -0.5661 N   0  0  0  0  0  0  0  0  0  0  0  0
    7.4053   59.8038   -0.8973 C   0  0  0  0  0  0  0  0  0  0  0  0
    8.3684   60.3373   -1.7055 N   0  0  0  0  0  0  0  0  0  0  0  0
    9.4323   59.4647   -1.7907 C   0  0  0  0  0  0  0  0  0  0  0  0
    9.1477   58.3448   -1.0260 C   0  0  0  0  0  0  0  0  0  0  0  0
    7.8619   58.5736   -0.4757 C   0  0  0  0  0  0  0  0  0  0  0  0
    7.0669   57.8338    0.3540 C   0  0  0  0  0  0  0  0  0  0  0  0
    7.1993   56.6093    0.9319 N   0  0  0  0  0  0  0  0  0  0  0  0
    8.3116   61.2101   -2.1574 H   0  0  0  0  0  0  0  0  0  0  0  0
    8.3285   55.6967    0.7713 C   0  0  0  0  0  0  0  0  0  0  0  0
    7.9149   54.2263    0.9709 C   0  0  0  0  0  0  0  0  0  0  0  0
    8.7864   53.2403    0.1898 C   0  0  0  0  0  0  0  0  0  0  0  0
   10.2807   53.6088    0.1741 C   0  0  0  0  0  0  0  0  0  0  0  0
   10.5080   55.0582   -0.3136 C   0  0  0  0  0  0  0  0  0  0  0  0
    9.2131   55.8646   -0.4724 C   0  0  0  0  0  0  0  0  0  0  0  0
   10.9261   53.3455    1.5561 C   0  0  0  0  0  0  0  0  0  0  0  0
   12.3973   52.9133    1.5020 C   0  0  0  0  0  0  0  0  0  0  0  0
   12.5426   51.4535    1.4215 C   0  0  0  0  0  0  0  0  0  0  0  0
   12.6511   50.3003    1.3567 N   0  0  0  0  0  0  0  0  0  0  0  0
    6.3301   55.3633    3.9751 C   0  0  0  0  0  0  0  0  0  0  0  0
    5.6995   55.2754    2.5969 C   0  0  0  0  0  0  0  0  0  0  0  0
    4.2757   55.3124    2.7800 O   0  0  0  0  0  0  0  0  0  0  0  0
    4.0262   56.1469    3.2068 H   0  0  0  0  0  0  0  0  0  0  0  0
 25 24  1  0
 25 26  1  0
 25  1  1  0
  1  2  2  0
  2  3  1  0
  3  4  2  0
  4  5  1  0
  5  6  2  0
  6  7  1  0
  7  8  1  0
  8  9  2  0
  9 10  1  0
 10 11  2  0
 11 12  1  0
 14 12  1  0
 14 15  1  0
 15 16  1  0
 16 17  1  0
 17 20  1  0
 20 21  1  0
 21 22  1  0
 22 23  3  0
 17 18  1  0
 18 19  1  0
 12  1  1  0
 19 14  1  0
 11  3  1  0
 10  6  1  0
 26 27  1  0
  7 13  1  0
M  END
> <minimizedAffinity>
-7.41942

> <CNNscore>
0.8661280870

> <CNNaffinity>
7.3087649345

> <CNN_VS>
6.3303265572

> <CNNaffinity_variance>
0.0588939488

$$$$



 27 30  0  0  0  0  0  0  0  0999 V2000
    4.7716   57.4360    1.5634 C   0  0  0  0  0  0  0  0  0  0  0  0
    4.4050   58.7039    1.4134 N   0  0  0  0  0  0  0  0  0  0  0  0
    5.3592   59.2857    0.6320 C   0  0  0  0  0  0  0  0  0  0  0  0
    5.4946   60.6034    0.1594 C   0  0  0  0  0  0  0  0  0  0  0  0
    6.5482   61.0076   -0.6114 N   0  0  0  0  0  0  0  0  0  0  0  0
    7.4509   60.0491   -0.8765 C   0  0  0  0  0  0  0  0  0  0  0  0
    8.5971   60.1845   -1.6067 N   0  0  0  0  0  0  0  0  0  0  0  0
    9.2656   58.9793   -1.6409 C   0  0  0  0  0  0  0  0  0  0  0  0
    8.5339   58.0475   -0.9223 C   0  0  0  0  0  0  0  0  0  0  0  0
    7.3890   58.7388   -0.4535 C   0  0  0  0  0  0  0  0  0  0  0  0
    6.3206   58.3495    0.3046 C   0  0  0  0  0  0  0  0  0  0  0  0
    5.9496   57.1654    0.8623 N   0  0  0  0  0  0  0  0  0  0  0  0
    8.8992   61.0145   -2.0416 H   0  0  0  0  0  0  0  0  0  0  0  0
    6.6691   55.8985    0.7563 C   0  0  0  0  0  0  0  0  0  0  0  0
    7.5853   55.6521    1.9699 C   0  0  0  0  0  0  0  0  0  0  0  0
    7.8091   54.1680    2.2688 C   0  0  0  0  0  0  0  0  0  0  0  0
    7.9736   53.2984    1.0097 C   0  0  0  0  0  0  0  0  0  0  0  0
    6.8018   53.4952    0.0206 C   0  0  0  0  0  0  0  0  0  0  0  0
    5.8591   54.6428    0.4035 C   0  0  0  0  0  0  0  0  0  0  0  0
    9.3504   53.5458    0.3469 C   0  0  0  0  0  0  0  0  0  0  0  0
   10.1264   52.2710   -0.0089 C   0  0  0  0  0  0  0  0  0  0  0  0
    9.9985   51.2380    1.0280 C   0  0  0  0  0  0  0  0  0  0  0  0
    9.8963   50.4267    1.8510 N   0  0  0  0  0  0  0  0  0  0  0  0
    3.0736   55.5754    1.5553 C   0  0  0  0  0  0  0  0  0  0  0  0
    3.9500   56.4887    2.3934 C   0  0  0  0  0  0  0  0  0  0  0  0
    4.8748   55.6517    3.1049 O   0  0  0  0  0  0  0  0  0  0  0  0
    5.4191   55.1593    2.4707 H   0  0  0  0  0  0  0  0  0  0  0  0
 25 24  1  0
 25 26  1  0
 25  1  1  0
  1  2  2  0
  2  3  1  0
  3  4  2  0
  4  5  1  0
  5  6  2  0
  6  7  1  0
  7  8  1  0
  8  9  2  0
  9 10  1  0
 10 11  2  0
 11 12  1  0
 14 12  1  0
 14 15  1  0
 15 16  1  0
 16 17  1  0
 17 20  1  0
 20 21  1  0
 21 22  1  0
 22 23  3  0
 17 18  1  0
 18 19  1  0
 12  1  1  0
 19 14  1  0
 11  3  1  0
 10  6  1  0
 26 27  1  0
  7 13  1  0
M  END
> <minimizedAffinity>
-6.97141

> <CNNscore>
0.8330502510

> <CNNaffinity>
7.3576464653

> <CNN_VS>
6.1292891502

> <CNNaffinity_variance>
0.0210643020

$$$$



 27 30  0  0  0  0  0  0  0  0999 V2000
    9.7145   55.1850    0.3613 C   0  0  0  0  0  0  0  0  0  0  0  0
   10.3267   56.2341   -0.1765 N   0  0  0  0  0  0  0  0  0  0  0  0
    9.3705   57.1939   -0.3318 C   0  0  0  0  0  0  0  0  0  0  0  0
    9.4405   58.4969   -0.8565 C   0  0  0  0  0  0  0  0  0  0  0  0
    8.3511   59.3170   -0.9465 N   0  0  0  0  0  0  0  0  0  0  0  0
    7.2039   58.7784   -0.5020 C   0  0  0  0  0  0  0  0  0  0  0  0
    5.9732   59.3704   -0.4895 N   0  0  0  0  0  0  0  0  0  0  0  0
    5.0457   58.4922    0.0293 C   0  0  0  0  0  0  0  0  0  0  0  0
    5.6918   57.3125    0.3619 C   0  0  0  0  0  0  0  0  0  0  0  0
    7.0538   57.5142    0.0262 C   0  0  0  0  0  0  0  0  0  0  0  0
    8.1573   56.7135    0.1214 C   0  0  0  0  0  0  0  0  0  0  0  0
    8.3623   55.4530    0.5904 N   0  0  0  0  0  0  0  0  0  0  0  0
    5.7785   60.2832   -0.8027 H   0  0  0  0  0  0  0  0  0  0  0  0
    7.3530   54.5763    1.1788 C   0  0  0  0  0  0  0  0  0  0  0  0
    7.5612   53.1043    0.7750 C   0  0  0  0  0  0  0  0  0  0  0  0
    7.0401   52.1109    1.8160 C   0  0  0  0  0  0  0  0  0  0  0  0
    5.7121   52.5341    2.4688 C   0  0  0  0  0  0  0  0  0  0  0  0
    5.7918   53.9624    3.0552 C   0  0  0  0  0  0  0  0  0  0  0  0
    7.0786   54.7096    2.6836 C   0  0  0  0  0  0  0  0  0  0  0  0
    4.5354   52.3707    1.4766 C   0  0  0  0  0  0  0  0  0  0  0  0
    4.0771   50.9223    1.2622 C   0  0  0  0  0  0  0  0  0  0  0  0
    3.3046   50.4118    2.4029 C   0  0  0  0  0  0  0  0  0  0  0  0
    2.6903   50.0064    3.2997 N   0  0  0  0  0  0  0  0  0  0  0  0
   11.2747   53.4189   -0.5283 C   0  0  0  0  0  0  0  0  0  0  0  0
   10.4706   53.9195    0.6580 C   0  0  0  0  0  0  0  0  0  0  0  0
   11.4060   54.2305    1.7023 O   0  0  0  0  0  0  0  0  0  0  0  0
   12.0132   54.9225    1.3969 H   0  0  0  0  0  0  0  0  0  0  0  0
 25 24  1  0
 25 26  1  0
 25  1  1  0
  1  2  2  0
  2  3  1  0
  3  4  2  0
  4  5  1  0
  5  6  2  0
  6  7  1  0
  7  8  1  0
  8  9  2  0
  9 10  1  0
 10 11  2  0
 11 12  1  0
 14 12  1  0
 14 15  1  0
 15 16  1  0
 16 17  1  0
 17 20  1  0
 20 21  1  0
 21 22  1  0
 22 23  3  0
 17 18  1  0
 18 19  1  0
 12  1  1  0
 19 14  1  0
 11  3  1  0
 10  6  1  0
 26 27  1  0
  7 13  1  0
M  END
> <minimizedAffinity>
-8.50655

> <CNNscore>
0.8191900253

> <CNNaffinity>
7.2964110374

> <CNN_VS>
5.9771471024

> <CNNaffinity_variance>
0.2366396934

$$$$



 27 30  0  0  0  0  0  0  0  0999 V2000
    5.6577   58.1741    0.8562 C   0  0  0  0  0  0  0  0  0  0  0  0
    5.8600   59.3524    0.2772 N   0  0  0  0  0  0  0  0  0  0  0  0
    7.0389   59.2460   -0.3998 C   0  0  0  0  0  0  0  0  0  0  0  0
    7.7478   60.1767   -1.1804 C   0  0  0  0  0  0  0  0  0  0  0  0
    8.9429   59.8845   -1.7753 N   0  0  0  0  0  0  0  0  0  0  0  0
    9.3935   58.6397   -1.5495 C   0  0  0  0  0  0  0  0  0  0  0  0
   10.5584   58.0954   -2.0101 N   0  0  0  0  0  0  0  0  0  0  0  0
   10.6733   56.8000   -1.5524 C   0  0  0  0  0  0  0  0  0  0  0  0
    9.5586   56.5018   -0.7853 C   0  0  0  0  0  0  0  0  0  0  0  0
    8.7592   57.6719   -0.8007 C   0  0  0  0  0  0  0  0  0  0  0  0
    7.5579   57.9779   -0.2252 C   0  0  0  0  0  0  0  0  0  0  0  0
    6.6821   57.2764    0.5440 N   0  0  0  0  0  0  0  0  0  0  0  0
   11.2147   58.5568   -2.5808 H   0  0  0  0  0  0  0  0  0  0  0  0
    6.8248   55.8845    0.9636 C   0  0  0  0  0  0  0  0  0  0  0  0
    6.7090   55.7278    2.4916 C   0  0  0  0  0  0  0  0  0  0  0  0
    6.1763   54.3591    2.9218 C   0  0  0  0  0  0  0  0  0  0  0  0
    6.7186   53.1891    2.0817 C   0  0  0  0  0  0  0  0  0  0  0  0
    6.4991   53.4201    0.5689 C   0  0  0  0  0  0  0  0  0  0  0  0
    5.9899   54.8262    0.2283 C   0  0  0  0  0  0  0  0  0  0  0  0
    8.2016   52.9075    2.4243 C   0  0  0  0  0  0  0  0  0  0  0  0
    9.1213   52.7566    1.2055 C   0  0  0  0  0  0  0  0  0  0  0  0
   10.3500   53.5512    1.3378 C   0  0  0  0  0  0  0  0  0  0  0  0
   11.3169   54.1834    1.4444 N   0  0  0  0  0  0  0  0  0  0  0  0
    3.6173   59.1870    1.9313 C   0  0  0  0  0  0  0  0  0  0  0  0
    4.4444   57.9331    1.7112 C   0  0  0  0  0  0  0  0  0  0  0  0
    3.6161   56.9990    1.0018 O   0  0  0  0  0  0  0  0  0  0  0  0
    3.3569   57.3800    0.1482 H   0  0  0  0  0  0  0  0  0  0  0  0
 25 24  1  0
 25 26  1  0
 25  1  1  0
  1  2  2  0
  2  3  1  0
  3  4  2  0
  4  5  1  0
  5  6  2  0
  6  7  1  0
  7  8  1  0
  8  9  2  0
  9 10  1  0
 10 11  2  0
 11 12  1  0
 14 12  1  0
 14 15  1  0
 15 16  1  0
 16 17  1  0
 17 20  1  0
 20 21  1  0
 21 22  1  0
 22 23  3  0
 17 18  1  0
 18 19  1  0
 12  1  1  0
 19 14  1  0
 11  3  1  0
 10  6  1  0
 26 27  1  0
  7 13  1  0
M  END
> <minimizedAffinity>
-8.20173

> <CNNscore>
0.8077021837

> <CNNaffinity>
7.5257148743

> <CNN_VS>
6.0785365105

> <CNNaffinity_variance>
0.0891633034

$$$$



 27 30  0  0  0  0  0  0  0  0999 V2000
    5.1463   58.0905    0.5524 C   0  0  0  0  0  0  0  0  0  0  0  0
    5.6154   59.1862   -0.0342 N   0  0  0  0  0  0  0  0  0  0  0  0
    6.8992   58.9035   -0.3965 C   0  0  0  0  0  0  0  0  0  0  0  0
    7.8755   59.6857   -1.0394 C   0  0  0  0  0  0  0  0  0  0  0  0
    9.1339   59.2247   -1.3064 N   0  0  0  0  0  0  0  0  0  0  0  0
    9.3699   57.9669   -0.8990 C   0  0  0  0  0  0  0  0  0  0  0  0
   10.5382   57.2712   -1.0272 N   0  0  0  0  0  0  0  0  0  0  0  0
   10.3899   56.0174   -0.4735 C   0  0  0  0  0  0  0  0  0  0  0  0
    9.0994   55.9008    0.0173 C   0  0  0  0  0  0  0  0  0  0  0  0
    8.4687   57.1378   -0.2664 C   0  0  0  0  0  0  0  0  0  0  0  0
    7.2105   57.6114   -0.0205 C   0  0  0  0  0  0  0  0  0  0  0  0
    6.1027   57.0718    0.5563 N   0  0  0  0  0  0  0  0  0  0  0  0
   11.3593   57.6124   -1.4497 H   0  0  0  0  0  0  0  0  0  0  0  0
    5.9789   55.7161    1.0859 C   0  0  0  0  0  0  0  0  0  0  0  0
    6.1147   54.6507   -0.0184 C   0  0  0  0  0  0  0  0  0  0  0  0
    6.6660   53.3170    0.4909 C   0  0  0  0  0  0  0  0  0  0  0  0
    6.1250   52.9078    1.8725 C   0  0  0  0  0  0  0  0  0  0  0  0
    6.3239   54.0273    2.9200 C   0  0  0  0  0  0  0  0  0  0  0  0
    6.8151   55.3510    2.3207 C   0  0  0  0  0  0  0  0  0  0  0  0
    4.6492   52.4522    1.7719 C   0  0  0  0  0  0  0  0  0  0  0  0
    4.4570   50.9371    1.6249 C   0  0  0  0  0  0  0  0  0  0  0  0
    3.4914   50.4051    2.5961 C   0  0  0  0  0  0  0  0  0  0  0  0
    2.7247   49.9891    3.3610 N   0  0  0  0  0  0  0  0  0  0  0  0
    3.3420   56.6673    1.5840 C   0  0  0  0  0  0  0  0  0  0  0  0
    3.7468   58.0484    1.1008 C   0  0  0  0  0  0  0  0  0  0  0  0
    3.7222   58.9199    2.2419 O   0  0  0  0  0  0  0  0  0  0  0  0
    4.3542   58.6018    2.9054 H   0  0  0  0  0  0  0  0  0  0  0  0
 25 24  1  0
 25 26  1  0
 25  1  1  0
  1  2  2  0
  2  3  1  0
  3  4  2  0
  4  5  1  0
  5  6  2  0
  6  7  1  0
  7  8  1  0
  8  9  2  0
  9 10  1  0
 10 11  2  0
 11 12  1  0
 14 12  1  0
 14 15  1  0
 15 16  1  0
 16 17  1  0
 17 20  1  0
 20 21  1  0
 21 22  1  0
 22 23  3  0
 17 18  1  0
 18 19  1  0
 12  1  1  0
 19 14  1  0
 11  3  1  0
 10  6  1  0
 26 27  1  0
  7 13  1  0
M  END
> <minimizedAffinity>
-8.59118

> <CNNscore>
0.7743855715

> <CNNaffinity>
7.5157370567

> <CNN_VS>
5.8200783730

> <CNNaffinity_variance>
0.3133869171

$$$$



 27 30  0  0  0  0  0  0  0  0999 V2000
    5.5269   58.4559    0.6984 C   0  0  0  0  0  0  0  0  0  0  0  0
    5.9791   59.4884   -0.0045 N   0  0  0  0  0  0  0  0  0  0  0  0
    7.1948   59.1118   -0.4942 C   0  0  0  0  0  0  0  0  0  0  0  0
    8.1270   59.7992   -1.2920 C   0  0  0  0  0  0  0  0  0  0  0  0
    9.3196   59.2515   -1.6733 N   0  0  0  0  0  0  0  0  0  0  0  0
    9.5370   58.0064   -1.2194 C   0  0  0  0  0  0  0  0  0  0  0  0
   10.6444   57.2376   -1.4383 N   0  0  0  0  0  0  0  0  0  0  0  0
   10.4982   56.0269   -0.7954 C   0  0  0  0  0  0  0  0  0  0  0  0
    9.2707   56.0131   -0.1529 C   0  0  0  0  0  0  0  0  0  0  0  0
    8.6755   57.2673   -0.4375 C   0  0  0  0  0  0  0  0  0  0  0  0
    7.4813   57.8263   -0.0779 C   0  0  0  0  0  0  0  0  0  0  0  0
    6.4233   57.3848    0.6546 N   0  0  0  0  0  0  0  0  0  0  0  0
   11.4263   57.5066   -1.9728 H   0  0  0  0  0  0  0  0  0  0  0  0
    6.2932   56.0698    1.2771 C   0  0  0  0  0  0  0  0  0  0  0  0
    6.9995   56.0065    2.6447 C   0  0  0  0  0  0  0  0  0  0  0  0
    6.3697   54.9956    3.6058 C   0  0  0  0  0  0  0  0  0  0  0  0
    5.9201   53.6895    2.9270 C   0  0  0  0  0  0  0  0  0  0  0  0
    4.9926   53.9610    1.7203 C   0  0  0  0  0  0  0  0  0  0  0  0
    4.8926   55.4440    1.3420 C   0  0  0  0  0  0  0  0  0  0  0  0
    7.1422   52.8197    2.5452 C   0  0  0  0  0  0  0  0  0  0  0  0
    6.8313   51.3291    2.3561 C   0  0  0  0  0  0  0  0  0  0  0  0
    5.8434   50.8423    3.3286 C   0  0  0  0  0  0  0  0  0  0  0  0
    5.0658   50.4618    4.1009 N   0  0  0  0  0  0  0  0  0  0  0  0
    3.7508   59.9495    1.6781 C   0  0  0  0  0  0  0  0  0  0  0  0
    4.2018   58.5257    1.4059 C   0  0  0  0  0  0  0  0  0  0  0  0
    3.2313   57.9350    0.5277 O   0  0  0  0  0  0  0  0  0  0  0  0
    3.1977   58.4370   -0.3016 H   0  0  0  0  0  0  0  0  0  0  0  0
 25 24  1  0
 25 26  1  0
 25  1  1  0
  1  2  2  0
  2  3  1  0
  3  4  2  0
  4  5  1  0
  5  6  2  0
  6  7  1  0
  7  8  1  0
  8  9  2  0
  9 10  1  0
 10 11  2  0
 11 12  1  0
 14 12  1  0
 14 15  1  0
 15 16  1  0
 16 17  1  0
 17 20  1  0
 20 21  1  0
 21 22  1  0
 22 23  3  0
 17 18  1  0
 18 19  1  0
 12  1  1  0
 19 14  1  0
 11  3  1  0
 10  6  1  0
 26 27  1  0
  7 13  1  0
M  END
> <minimizedAffinity>
-7.64559

> <CNNscore>
0.7523070574

> <CNNaffinity>
7.3749656677

> <CNN_VS>
5.5482387543

> <CNNaffinity_variance>
0.1136116311

$$$$
