


 39 42  0  0  0  0  0  0  0  0999 V2000
   20.0451  -30.2425   10.0962 C   0  0  0  0  0  0  0  0  0  0  0  0
   20.7953  -30.4407   11.1941 C   0  0  0  0  0  0  0  0  0  0  0  0
   20.3841  -30.0502   12.5842 C   0  0  0  0  0  0  0  0  0  0  0  0
   19.0169  -29.6002   12.5072 O   0  0  0  0  0  0  0  0  0  0  0  0
   18.1933  -30.5124   13.2674 C   0  0  0  0  0  0  0  0  0  0  0  0
   19.0172  -31.7857   13.4678 C   0  0  0  0  0  0  0  0  0  0  0  0
   18.6683  -32.5359   14.6263 O   0  0  0  0  0  0  0  0  0  0  0  0
   20.4197  -31.2124   13.5828 C   0  0  0  0  0  0  0  0  0  0  0  0
   20.5938  -30.7328   14.9290 O   0  0  0  0  0  0  0  0  0  0  0  0
   18.7655  -31.9782   15.4140 H   0  0  0  0  0  0  0  0  0  0  0  0
   19.8863  -30.1045   15.1425 H   0  0  0  0  0  0  0  0  0  0  0  0
   16.9571  -30.7394   12.5458 N   0  0  0  0  0  0  0  0  0  0  0  0
   16.8216  -31.2318   11.2739 C   0  0  0  0  0  0  0  0  0  0  0  0
   15.5566  -31.3610   10.9274 N   0  0  0  0  0  0  0  0  0  0  0  0
   14.8483  -30.9177   12.0165 C   0  0  0  0  0  0  0  0  0  0  0  0
   13.4874  -30.8023   12.2750 C   0  0  0  0  0  0  0  0  0  0  0  0
   13.0722  -30.3131   13.4707 N   0  0  0  0  0  0  0  0  0  0  0  0
   14.0142  -29.9550   14.3729 C   0  0  0  0  0  0  0  0  0  0  0  0
   13.5612  -29.4743   15.5408 F   0  0  0  0  0  0  0  0  0  0  0  0
   15.3549  -30.0186   14.2331 N   0  0  0  0  0  0  0  0  0  0  0  0
   15.6986  -30.5136   13.0332 C   0  0  0  0  0  0  0  0  0  0  0  0
   20.4575  -30.6856    8.7271 C   0  0  0  0  0  0  0  0  0  0  0  0
   22.0500  -30.9768    6.4294 O   0  0  0  0  0  0  0  0  0  0  0  0
   22.1739  -29.9707    7.1193 C   0  0  0  0  0  0  0  0  0  0  0  0
   21.4095  -29.7298    8.2333 N   0  0  0  0  0  0  0  0  0  0  0  0
   21.5170  -28.8747    8.7092 H   0  0  0  0  0  0  0  0  0  0  0  0
   23.1799  -28.9283    6.7479 C   0  0  0  0  0  0  0  0  0  0  0  0
   24.2101  -29.3087    5.8697 C   0  0  0  0  0  0  0  0  0  0  0  0
   25.1800  -28.3738    5.4725 C   0  0  0  0  0  0  0  0  0  0  0  0
   25.1446  -27.0536    5.9416 C   0  0  0  0  0  0  0  0  0  0  0  0
   24.1261  -26.6885    6.8104 C   0  0  0  0  0  0  0  0  0  0  0  0
   24.0280  -25.4170    7.3101 O   0  0  0  0  0  0  0  0  0  0  0  0
   23.1517  -27.6081    7.2135 C   0  0  0  0  0  0  0  0  0  0  0  0
   22.1866  -27.1584    8.0802 O   0  0  0  0  0  0  0  0  0  0  0  0
   24.6588  -24.7682    7.0672 H   0  0  0  0  0  0  0  0  0  0  0  0
   22.1972  -26.2681    8.3722 H   0  0  0  0  0  0  0  0  0  0  0  0
   26.2486  -28.7802    4.5499 N   0  0  0  0  0  0  0  0  0  0  0  0
   26.9434  -27.8909    4.0412 O   0  0  0  0  0  0  0  0  0  0  0  0
   26.3875  -29.9933    4.3367 O   0  0  0  0  0  0  0  0  0  0  0  0
 23 24  2  0
 24 25  1  0
 25 22  1  0
 22  1  1  0
  1  2  2  0
  3  2  1  0
  3  4  1  0
  4  5  1  0
  5 12  1  0
 12 13  1  0
 13 14  2  0
 14 15  1  0
 15 16  2  0
 16 17  1  0
 17 18  2  0
 18 19  1  0
 18 20  1  0
 20 21  2  0
  5  6  1  0
  6  7  1  0
  6  8  1  0
  8  9  1  0
 24 27  1  0
 27 28  2  0
 28 29  1  0
 29 37  1  0
 37 38  2  0
 37 39  1  0
 29 30  2  0
 30 31  1  0
 31 32  1  0
 31 33  2  0
 33 34  1  0
  8  3  1  0
 33 27  1  0
 21 12  1  0
 21 15  1  0
 25 26  1  0
  7 10  1  0
  9 11  1  0
 32 35  1  0
 34 36  1  0
M  CHG 1  37   1
M  CHG 1  39  -1
M  END
> <minimizedAffinity>
-10.94217

> <CNNscore>
0.9184351563

> <CNNaffinity>
7.2967324257

> <CNN_VS>
6.7015757561

> <CNNaffinity_variance>
0.0388710983

$$$$



 39 42  0  0  0  0  0  0  0  0999 V2000
   20.2599  -30.5200   10.0124 C   0  0  0  0  0  0  0  0  0  0  0  0
   20.4053  -31.5073   10.9132 C   0  0  0  0  0  0  0  0  0  0  0  0
   20.1804  -31.3488   12.3891 C   0  0  0  0  0  0  0  0  0  0  0  0
   19.6054  -32.5832   12.8616 O   0  0  0  0  0  0  0  0  0  0  0  0
   20.5396  -33.2013   13.7745 C   0  0  0  0  0  0  0  0  0  0  0  0
   21.8961  -32.5367   13.5321 C   0  0  0  0  0  0  0  0  0  0  0  0
   22.7687  -32.5536   14.6568 O   0  0  0  0  0  0  0  0  0  0  0  0
   21.4706  -31.1201   13.1844 C   0  0  0  0  0  0  0  0  0  0  0  0
   21.2032  -30.4226   14.4150 O   0  0  0  0  0  0  0  0  0  0  0  0
   22.3386  -32.1129   15.4063 H   0  0  0  0  0  0  0  0  0  0  0  0
   20.5515  -30.9199   14.9335 H   0  0  0  0  0  0  0  0  0  0  0  0
   20.5527  -34.6305   13.5347 N   0  0  0  0  0  0  0  0  0  0  0  0
   21.2953  -35.3047   12.6006 C   0  0  0  0  0  0  0  0  0  0  0  0
   21.1112  -36.6077   12.6711 N   0  0  0  0  0  0  0  0  0  0  0  0
   20.1990  -36.7781   13.6828 C   0  0  0  0  0  0  0  0  0  0  0  0
   19.6023  -37.9047   14.2367 C   0  0  0  0  0  0  0  0  0  0  0  0
   18.7113  -37.7606   15.2500 N   0  0  0  0  0  0  0  0  0  0  0  0
   18.4396  -36.5088   15.6845 C   0  0  0  0  0  0  0  0  0  0  0  0
   17.5519  -36.4107   16.6859 F   0  0  0  0  0  0  0  0  0  0  0  0
   18.9514  -35.3480   15.2243 N   0  0  0  0  0  0  0  0  0  0  0  0
   19.8266  -35.5602   14.2284 C   0  0  0  0  0  0  0  0  0  0  0  0
   20.4429  -30.7166    8.5398 C   0  0  0  0  0  0  0  0  0  0  0  0
   22.1809  -30.9907    6.3478 O   0  0  0  0  0  0  0  0  0  0  0  0
   22.2320  -29.9716    7.0278 C   0  0  0  0  0  0  0  0  0  0  0  0
   21.3940  -29.7388    8.0893 N   0  0  0  0  0  0  0  0  0  0  0  0
   21.4464  -28.8741    8.5571 H   0  0  0  0  0  0  0  0  0  0  0  0
   23.2269  -28.9038    6.7013 C   0  0  0  0  0  0  0  0  0  0  0  0
   24.2665  -29.2384    5.8156 C   0  0  0  0  0  0  0  0  0  0  0  0
   25.2267  -28.2775    5.4592 C   0  0  0  0  0  0  0  0  0  0  0  0
   25.1724  -26.9763    5.9770 C   0  0  0  0  0  0  0  0  0  0  0  0
   24.1447  -26.6564    6.8528 C   0  0  0  0  0  0  0  0  0  0  0  0
   24.0279  -25.4058    7.3989 O   0  0  0  0  0  0  0  0  0  0  0  0
   23.1797  -27.6023    7.2156 C   0  0  0  0  0  0  0  0  0  0  0  0
   22.2043  -27.1971    8.0928 O   0  0  0  0  0  0  0  0  0  0  0  0
   24.6519  -24.7406    7.1840 H   0  0  0  0  0  0  0  0  0  0  0  0
   22.2023  -26.3183    8.4178 H   0  0  0  0  0  0  0  0  0  0  0  0
   26.3053  -28.6361    4.5284 N   0  0  0  0  0  0  0  0  0  0  0  0
   26.5004  -29.8377    4.3038 O   0  0  0  0  0  0  0  0  0  0  0  0
   26.9560  -27.7091    4.0249 O   0  0  0  0  0  0  0  0  0  0  0  0
 23 24  2  0
 24 25  1  0
 25 22  1  0
 22  1  1  0
  1  2  2  0
  3  2  1  0
  3  4  1  0
  4  5  1  0
  5 12  1  0
 12 13  1  0
 13 14  2  0
 14 15  1  0
 15 16  2  0
 16 17  1  0
 17 18  2  0
 18 19  1  0
 18 20  1  0
 20 21  2  0
  5  6  1  0
  6  7  1  0
  6  8  1  0
  8  9  1  0
 24 27  1  0
 27 28  2  0
 28 29  1  0
 29 37  1  0
 37 38  2  0
 37 39  1  0
 29 30  2  0
 30 31  1  0
 31 32  1  0
 31 33  2  0
 33 34  1  0
  8  3  1  0
 33 27  1  0
 21 12  1  0
 21 15  1  0
 25 26  1  0
  7 10  1  0
  9 11  1  0
 32 35  1  0
 34 36  1  0
M  CHG 1  37   1
M  CHG 1  39  -1
M  END
> <minimizedAffinity>
-8.66509

> <CNNscore>
0.3893106580

> <CNNaffinity>
5.8704185486

> <CNN_VS>
2.2854166031

> <CNNaffinity_variance>
0.0038559437

$$$$



 39 42  0  0  0  0  0  0  0  0999 V2000
   20.1563  -32.1576   13.7072 C   0  0  0  0  0  0  0  0  0  0  0  0
   21.4498  -32.3567   14.0149 C   0  0  0  0  0  0  0  0  0  0  0  0
   22.0266  -33.6752   14.4428 C   0  0  0  0  0  0  0  0  0  0  0  0
   22.1485  -34.4853   13.2568 O   0  0  0  0  0  0  0  0  0  0  0  0
   23.5515  -34.7370   13.0190 C   0  0  0  0  0  0  0  0  0  0  0  0
   24.3284  -33.7073   13.8415 C   0  0  0  0  0  0  0  0  0  0  0  0
   25.6380  -34.1210   14.2162 O   0  0  0  0  0  0  0  0  0  0  0  0
   23.4267  -33.5614   15.0558 C   0  0  0  0  0  0  0  0  0  0  0  0
   23.6947  -34.6635   15.9423 O   0  0  0  0  0  0  0  0  0  0  0  0
   25.5836  -34.9450   14.7251 H   0  0  0  0  0  0  0  0  0  0  0  0
   23.5858  -35.4990   15.4616 H   0  0  0  0  0  0  0  0  0  0  0  0
   23.8093  -34.6435   11.5959 N   0  0  0  0  0  0  0  0  0  0  0  0
   22.9640  -34.1558   10.6335 C   0  0  0  0  0  0  0  0  0  0  0  0
   23.5190  -34.1669    9.4382 N   0  0  0  0  0  0  0  0  0  0  0  0
   24.7685  -34.6994    9.6373 C   0  0  0  0  0  0  0  0  0  0  0  0
   25.8272  -34.9710    8.7787 C   0  0  0  0  0  0  0  0  0  0  0  0
   26.9669  -35.5172    9.2728 N   0  0  0  0  0  0  0  0  0  0  0  0
   27.0246  -35.7761   10.5993 C   0  0  0  0  0  0  0  0  0  0  0  0
   28.1680  -36.3178   11.0462 F   0  0  0  0  0  0  0  0  0  0  0  0
   26.0652  -35.5596   11.5232 N   0  0  0  0  0  0  0  0  0  0  0  0
   24.9686  -35.0157   10.9714 C   0  0  0  0  0  0  0  0  0  0  0  0
   19.6158  -30.8436   13.2360 C   0  0  0  0  0  0  0  0  0  0  0  0
   17.6294  -31.0459   11.2576 O   0  0  0  0  0  0  0  0  0  0  0  0
   17.2947  -30.9203   12.4306 C   0  0  0  0  0  0  0  0  0  0  0  0
   18.1972  -30.8550   13.4623 N   0  0  0  0  0  0  0  0  0  0  0  0
   17.8618  -30.8146   14.3870 H   0  0  0  0  0  0  0  0  0  0  0  0
   15.8450  -30.8522   12.7915 C   0  0  0  0  0  0  0  0  0  0  0  0
   14.9432  -31.5639   11.9806 C   0  0  0  0  0  0  0  0  0  0  0  0
   13.5695  -31.5505   12.2725 C   0  0  0  0  0  0  0  0  0  0  0  0
   13.0713  -30.8305   13.3668 C   0  0  0  0  0  0  0  0  0  0  0  0
   13.9684  -30.1287   14.1594 C   0  0  0  0  0  0  0  0  0  0  0  0
   13.5546  -29.4025   15.2444 O   0  0  0  0  0  0  0  0  0  0  0  0
   15.3399  -30.1342   13.8823 C   0  0  0  0  0  0  0  0  0  0  0  0
   16.1504  -29.4057   14.7173 O   0  0  0  0  0  0  0  0  0  0  0  0
   12.6451  -29.3704   15.4674 H   0  0  0  0  0  0  0  0  0  0  0  0
   15.7793  -28.9366   15.4385 H   0  0  0  0  0  0  0  0  0  0  0  0
   12.6368  -32.3023   11.4222 N   0  0  0  0  0  0  0  0  0  0  0  0
   12.3427  -33.4551   11.7641 O   0  0  0  0  0  0  0  0  0  0  0  0
   12.2018  -31.7334   10.4106 O   0  0  0  0  0  0  0  0  0  0  0  0
 23 24  2  0
 24 25  1  0
 25 22  1  0
 22  1  1  0
  1  2  2  0
  3  2  1  0
  3  4  1  0
  4  5  1  0
  5 12  1  0
 12 13  1  0
 13 14  2  0
 14 15  1  0
 15 16  2  0
 16 17  1  0
 17 18  2  0
 18 19  1  0
 18 20  1  0
 20 21  2  0
  5  6  1  0
  6  7  1  0
  6  8  1  0
  8  9  1  0
 24 27  1  0
 27 28  2  0
 28 29  1  0
 29 37  1  0
 37 38  2  0
 37 39  1  0
 29 30  2  0
 30 31  1  0
 31 32  1  0
 31 33  2  0
 33 34  1  0
  8  3  1  0
 33 27  1  0
 21 12  1  0
 21 15  1  0
 25 26  1  0
  7 10  1  0
  9 11  1  0
 32 35  1  0
 34 36  1  0
M  CHG 1  37   1
M  CHG 1  39  -1
M  END
> <minimizedAffinity>
-9.61111

> <CNNscore>
0.3655505478

> <CNNaffinity>
6.3717842102

> <CNN_VS>
2.3292093277

> <CNNaffinity_variance>
0.1302334815

$$$$



 39 42  0  0  0  0  0  0  0  0999 V2000
   20.0195  -32.2090   13.0146 C   0  0  0  0  0  0  0  0  0  0  0  0
   21.3044  -32.5581   12.8279 C   0  0  0  0  0  0  0  0  0  0  0  0
   21.7693  -33.9544   12.5312 C   0  0  0  0  0  0  0  0  0  0  0  0
   21.4635  -34.2140   11.1467 O   0  0  0  0  0  0  0  0  0  0  0  0
   22.7061  -34.3925   10.4311 C   0  0  0  0  0  0  0  0  0  0  0  0
   23.8108  -33.8136   11.3172 C   0  0  0  0  0  0  0  0  0  0  0  0
   25.0964  -34.3866   11.1042 O   0  0  0  0  0  0  0  0  0  0  0  0
   23.2804  -34.1462   12.7017 C   0  0  0  0  0  0  0  0  0  0  0  0
   23.5992  -35.5222   12.9801 O   0  0  0  0  0  0  0  0  0  0  0  0
   25.0521  -35.3442   11.2520 H   0  0  0  0  0  0  0  0  0  0  0  0
   23.2490  -36.0850   12.2720 H   0  0  0  0  0  0  0  0  0  0  0  0
   22.6035  -33.7353    9.1434 N   0  0  0  0  0  0  0  0  0  0  0  0
   23.1013  -34.1807    7.9466 C   0  0  0  0  0  0  0  0  0  0  0  0
   22.7967  -33.3697    6.9534 N   0  0  0  0  0  0  0  0  0  0  0  0
   22.0867  -32.3509    7.5385 C   0  0  0  0  0  0  0  0  0  0  0  0
   21.4941  -31.2002    7.0318 C   0  0  0  0  0  0  0  0  0  0  0  0
   20.8471  -30.3543    7.8728 N   0  0  0  0  0  0  0  0  0  0  0  0
   20.8051  -30.6729    9.1867 C   0  0  0  0  0  0  0  0  0  0  0  0
   20.1578  -29.8089    9.9836 F   0  0  0  0  0  0  0  0  0  0  0  0
   21.3432  -31.7535    9.7898 N   0  0  0  0  0  0  0  0  0  0  0  0
   21.9634  -32.5497    8.9042 C   0  0  0  0  0  0  0  0  0  0  0  0
   19.5774  -30.8003   13.2609 C   0  0  0  0  0  0  0  0  0  0  0  0
   17.6005  -31.0048   11.2733 O   0  0  0  0  0  0  0  0  0  0  0  0
   17.2602  -30.8915   12.4459 C   0  0  0  0  0  0  0  0  0  0  0  0
   18.1581  -30.8263   13.4816 N   0  0  0  0  0  0  0  0  0  0  0  0
   17.8189  -30.7963   14.4053 H   0  0  0  0  0  0  0  0  0  0  0  0
   15.8085  -30.8395   12.8017 C   0  0  0  0  0  0  0  0  0  0  0  0
   14.9160  -31.5499   11.9796 C   0  0  0  0  0  0  0  0  0  0  0  0
   13.5411  -31.5511   12.2661 C   0  0  0  0  0  0  0  0  0  0  0  0
   13.0325  -30.8472   13.3661 C   0  0  0  0  0  0  0  0  0  0  0  0
   13.9206  -30.1465   14.1698 C   0  0  0  0  0  0  0  0  0  0  0  0
   13.4965  -29.4355   15.2609 O   0  0  0  0  0  0  0  0  0  0  0  0
   15.2931  -30.1375   13.8981 C   0  0  0  0  0  0  0  0  0  0  0  0
   16.0942  -29.4114   14.7442 O   0  0  0  0  0  0  0  0  0  0  0  0
   12.5859  -29.4134   15.4806 H   0  0  0  0  0  0  0  0  0  0  0  0
   15.7163  -28.9531   15.4689 H   0  0  0  0  0  0  0  0  0  0  0  0
   12.6181  -32.3015   11.4040 N   0  0  0  0  0  0  0  0  0  0  0  0
   12.1910  -31.7405   10.3865 O   0  0  0  0  0  0  0  0  0  0  0  0
   12.3225  -33.4540   11.7514 O   0  0  0  0  0  0  0  0  0  0  0  0
 23 24  2  0
 24 25  1  0
 25 22  1  0
 22  1  1  0
  1  2  2  0
  3  2  1  0
  3  4  1  0
  4  5  1  0
  5 12  1  0
 12 13  1  0
 13 14  2  0
 14 15  1  0
 15 16  2  0
 16 17  1  0
 17 18  2  0
 18 19  1  0
 18 20  1  0
 20 21  2  0
  5  6  1  0
  6  7  1  0
  6  8  1  0
  8  9  1  0
 24 27  1  0
 27 28  2  0
 28 29  1  0
 29 37  1  0
 37 38  2  0
 37 39  1  0
 29 30  2  0
 30 31  1  0
 31 32  1  0
 31 33  2  0
 33 34  1  0
  8  3  1  0
 33 27  1  0
 21 12  1  0
 21 15  1  0
 25 26  1  0
  7 10  1  0
  9 11  1  0
 32 35  1  0
 34 36  1  0
M  CHG 1  37   1
M  CHG 1  39  -1
M  END
> <minimizedAffinity>
-10.26322

> <CNNscore>
0.3453167081

> <CNNaffinity>
6.1845188141

> <CNN_VS>
2.1356177330

> <CNNaffinity_variance>
0.1104632616

$$$$



 39 42  0  0  0  0  0  0  0  0999 V2000
   20.3963  -31.0934   13.9135 C   0  0  0  0  0  0  0  0  0  0  0  0
   21.3151  -32.0231   13.5988 C   0  0  0  0  0  0  0  0  0  0  0  0
   22.0526  -32.8606   14.6031 C   0  0  0  0  0  0  0  0  0  0  0  0
   21.2902  -34.0707   14.7821 O   0  0  0  0  0  0  0  0  0  0  0  0
   22.0820  -35.1827   14.3081 C   0  0  0  0  0  0  0  0  0  0  0  0
   23.1888  -34.5925   13.4323 C   0  0  0  0  0  0  0  0  0  0  0  0
   24.3673  -35.3876   13.3585 O   0  0  0  0  0  0  0  0  0  0  0  0
   23.4544  -33.2760   14.1431 C   0  0  0  0  0  0  0  0  0  0  0  0
   24.3102  -33.5446   15.2691 O   0  0  0  0  0  0  0  0  0  0  0  0
   24.7207  -35.5256   14.2512 H   0  0  0  0  0  0  0  0  0  0  0  0
   23.9049  -34.2260   15.8280 H   0  0  0  0  0  0  0  0  0  0  0  0
   21.2182  -36.1022   13.5947 N   0  0  0  0  0  0  0  0  0  0  0  0
   21.1709  -36.3091   12.2407 C   0  0  0  0  0  0  0  0  0  0  0  0
   20.3060  -37.2489   11.9155 N   0  0  0  0  0  0  0  0  0  0  0  0
   19.7620  -37.6524   13.1095 C   0  0  0  0  0  0  0  0  0  0  0  0
   18.8017  -38.6025   13.4369 C   0  0  0  0  0  0  0  0  0  0  0  0
   18.4532  -38.7821   14.7360 N   0  0  0  0  0  0  0  0  0  0  0  0
   19.0653  -38.0186   15.6699 C   0  0  0  0  0  0  0  0  0  0  0  0
   18.6901  -38.2264   16.9413 F   0  0  0  0  0  0  0  0  0  0  0  0
   20.0032  -37.0689   15.4716 N   0  0  0  0  0  0  0  0  0  0  0  0
   20.3054  -36.9442   14.1693 C   0  0  0  0  0  0  0  0  0  0  0  0
   19.6393  -30.3057   12.8902 C   0  0  0  0  0  0  0  0  0  0  0  0
   17.5987  -31.0768   11.1177 O   0  0  0  0  0  0  0  0  0  0  0  0
   17.3064  -30.7657   12.2672 C   0  0  0  0  0  0  0  0  0  0  0  0
   18.2426  -30.4162   13.2077 N   0  0  0  0  0  0  0  0  0  0  0  0
   17.9477  -30.2354   14.1295 H   0  0  0  0  0  0  0  0  0  0  0  0
   15.8762  -30.7763   12.7043 C   0  0  0  0  0  0  0  0  0  0  0  0
   14.9665  -31.5078   11.9203 C   0  0  0  0  0  0  0  0  0  0  0  0
   13.6110  -31.5675   12.2830 C   0  0  0  0  0  0  0  0  0  0  0  0
   13.1388  -30.9019   13.4223 C   0  0  0  0  0  0  0  0  0  0  0  0
   14.0433  -30.1800   14.1879 C   0  0  0  0  0  0  0  0  0  0  0  0
   13.6546  -29.5038   15.3138 O   0  0  0  0  0  0  0  0  0  0  0  0
   15.3971  -30.1129   13.8404 C   0  0  0  0  0  0  0  0  0  0  0  0
   16.2162  -29.3696   14.6536 O   0  0  0  0  0  0  0  0  0  0  0  0
   12.7576  -29.5210   15.5843 H   0  0  0  0  0  0  0  0  0  0  0  0
   15.8626  -28.9383   15.4065 H   0  0  0  0  0  0  0  0  0  0  0  0
   12.6702  -32.3396   11.4601 N   0  0  0  0  0  0  0  0  0  0  0  0
   12.2347  -31.8111   10.4289 O   0  0  0  0  0  0  0  0  0  0  0  0
   12.3692  -33.4762   11.8521 O   0  0  0  0  0  0  0  0  0  0  0  0
 23 24  2  0
 24 25  1  0
 25 22  1  0
 22  1  1  0
  1  2  2  0
  3  2  1  0
  3  4  1  0
  4  5  1  0
  5 12  1  0
 12 13  1  0
 13 14  2  0
 14 15  1  0
 15 16  2  0
 16 17  1  0
 17 18  2  0
 18 19  1  0
 18 20  1  0
 20 21  2  0
  5  6  1  0
  6  7  1  0
  6  8  1  0
  8  9  1  0
 24 27  1  0
 27 28  2  0
 28 29  1  0
 29 37  1  0
 37 38  2  0
 37 39  1  0
 29 30  2  0
 30 31  1  0
 31 32  1  0
 31 33  2  0
 33 34  1  0
  8  3  1  0
 33 27  1  0
 21 12  1  0
 21 15  1  0
 25 26  1  0
  7 10  1  0
  9 11  1  0
 32 35  1  0
 34 36  1  0
M  CHG 1  37   1
M  CHG 1  39  -1
M  END
> <minimizedAffinity>
-9.84067

> <CNNscore>
0.3224206567

> <CNNaffinity>
6.5108890533

> <CNN_VS>
2.0992450714

> <CNNaffinity_variance>
0.0188546628

$$$$



 39 42  0  0  0  0  0  0  0  0999 V2000
   20.1144  -32.3472   13.8070 C   0  0  0  0  0  0  0  0  0  0  0  0
   21.3765  -32.5131   14.2396 C   0  0  0  0  0  0  0  0  0  0  0  0
   21.9345  -33.8099   14.7503 C   0  0  0  0  0  0  0  0  0  0  0  0
   21.7536  -34.7859   13.7051 O   0  0  0  0  0  0  0  0  0  0  0  0
   23.0568  -35.2079   13.2450 C   0  0  0  0  0  0  0  0  0  0  0  0
   24.0563  -34.1565   13.7310 C   0  0  0  0  0  0  0  0  0  0  0  0
   25.3824  -34.6430   13.9075 O   0  0  0  0  0  0  0  0  0  0  0  0
   23.4350  -33.7526   15.0575 C   0  0  0  0  0  0  0  0  0  0  0  0
   23.8006  -34.7414   16.0380 O   0  0  0  0  0  0  0  0  0  0  0  0
   25.3756  -35.3782   14.5403 H   0  0  0  0  0  0  0  0  0  0  0  0
   23.5371  -35.6206   15.7243 H   0  0  0  0  0  0  0  0  0  0  0  0
   23.0236  -35.3405   11.8021 N   0  0  0  0  0  0  0  0  0  0  0  0
   23.3942  -36.4346   11.0644 C   0  0  0  0  0  0  0  0  0  0  0  0
   23.1992  -36.2485    9.7744 N   0  0  0  0  0  0  0  0  0  0  0  0
   22.6971  -34.9746    9.6764 C   0  0  0  0  0  0  0  0  0  0  0  0
   22.2945  -34.1986    8.5958 C   0  0  0  0  0  0  0  0  0  0  0  0
   21.8336  -32.9404    8.8099 N   0  0  0  0  0  0  0  0  0  0  0  0
   21.7838  -32.4898   10.0844 C   0  0  0  0  0  0  0  0  0  0  0  0
   21.3242  -31.2403   10.2517 F   0  0  0  0  0  0  0  0  0  0  0  0
   22.1483  -33.1471   11.2051 N   0  0  0  0  0  0  0  0  0  0  0  0
   22.5898  -34.3839   10.9251 C   0  0  0  0  0  0  0  0  0  0  0  0
   19.5968  -31.0550   13.2566 C   0  0  0  0  0  0  0  0  0  0  0  0
   17.6229  -31.0300   11.2556 O   0  0  0  0  0  0  0  0  0  0  0  0
   17.2820  -30.9846   12.4326 C   0  0  0  0  0  0  0  0  0  0  0  0
   18.1766  -31.0329   13.4720 N   0  0  0  0  0  0  0  0  0  0  0  0
   17.8342  -31.0530   14.3949 H   0  0  0  0  0  0  0  0  0  0  0  0
   15.8323  -30.8927   12.7883 C   0  0  0  0  0  0  0  0  0  0  0  0
   14.9222  -31.5919   11.9758 C   0  0  0  0  0  0  0  0  0  0  0  0
   13.5479  -31.5561   12.2629 C   0  0  0  0  0  0  0  0  0  0  0  0
   13.0573  -30.8259   13.3539 C   0  0  0  0  0  0  0  0  0  0  0  0
   13.9627  -30.1365   14.1480 C   0  0  0  0  0  0  0  0  0  0  0  0
   13.5567  -29.4014   15.2300 O   0  0  0  0  0  0  0  0  0  0  0  0
   15.3349  -30.1644   13.8757 C   0  0  0  0  0  0  0  0  0  0  0  0
   16.1539  -29.4470   14.7120 O   0  0  0  0  0  0  0  0  0  0  0  0
   12.6471  -29.3544   15.4498 H   0  0  0  0  0  0  0  0  0  0  0  0
   15.7878  -28.9704   15.4308 H   0  0  0  0  0  0  0  0  0  0  0  0
   12.6063  -32.2950   11.4110 N   0  0  0  0  0  0  0  0  0  0  0  0
   12.3130  -33.4517   11.7403 O   0  0  0  0  0  0  0  0  0  0  0  0
   12.1635  -31.7120   10.4108 O   0  0  0  0  0  0  0  0  0  0  0  0
 23 24  2  0
 24 25  1  0
 25 22  1  0
 22  1  1  0
  1  2  2  0
  3  2  1  0
  3  4  1  0
  4  5  1  0
  5 12  1  0
 12 13  1  0
 13 14  2  0
 14 15  1  0
 15 16  2  0
 16 17  1  0
 17 18  2  0
 18 19  1  0
 18 20  1  0
 20 21  2  0
  5  6  1  0
  6  7  1  0
  6  8  1  0
  8  9  1  0
 24 27  1  0
 27 28  2  0
 28 29  1  0
 29 37  1  0
 37 38  2  0
 37 39  1  0
 29 30  2  0
 30 31  1  0
 31 32  1  0
 31 33  2  0
 33 34  1  0
  8  3  1  0
 33 27  1  0
 21 12  1  0
 21 15  1  0
 25 26  1  0
  7 10  1  0
  9 11  1  0
 32 35  1  0
 34 36  1  0
M  CHG 1  37   1
M  CHG 1  39  -1
M  END
> <minimizedAffinity>
-9.66335

> <CNNscore>
0.3173592687

> <CNNaffinity>
6.2619023323

> <CNN_VS>
1.9872727394

> <CNNaffinity_variance>
0.0525448434

$$$$



 39 42  0  0  0  0  0  0  0  0999 V2000
   20.1343  -32.0516   13.4260 C   0  0  0  0  0  0  0  0  0  0  0  0
   20.9678  -32.3782   14.4290 C   0  0  0  0  0  0  0  0  0  0  0  0
   21.5556  -33.7446   14.6324 C   0  0  0  0  0  0  0  0  0  0  0  0
   21.2349  -34.5189   13.4596 O   0  0  0  0  0  0  0  0  0  0  0  0
   22.4670  -34.8504   12.7813 C   0  0  0  0  0  0  0  0  0  0  0  0
   23.5370  -33.9013   13.3244 C   0  0  0  0  0  0  0  0  0  0  0  0
   24.8647  -34.4099   13.2540 O   0  0  0  0  0  0  0  0  0  0  0  0
   23.0825  -33.7411   14.7654 C   0  0  0  0  0  0  0  0  0  0  0  0
   23.5402  -34.8883   15.5050 O   0  0  0  0  0  0  0  0  0  0  0  0
   24.9171  -35.2461   13.7428 H   0  0  0  0  0  0  0  0  0  0  0  0
   23.2246  -35.6979   15.0739 H   0  0  0  0  0  0  0  0  0  0  0  0
   22.2634  -34.7239   11.3520 N   0  0  0  0  0  0  0  0  0  0  0  0
   22.2821  -33.5690   10.6140 C   0  0  0  0  0  0  0  0  0  0  0  0
   22.1072  -33.8023    9.3288 N   0  0  0  0  0  0  0  0  0  0  0  0
   21.9532  -35.1634    9.2378 C   0  0  0  0  0  0  0  0  0  0  0  0
   21.7367  -36.0198    8.1647 C   0  0  0  0  0  0  0  0  0  0  0  0
   21.6170  -37.3532    8.3858 N   0  0  0  0  0  0  0  0  0  0  0  0
   21.7162  -37.7979    9.6594 C   0  0  0  0  0  0  0  0  0  0  0  0
   21.5898  -39.1223    9.8343 F   0  0  0  0  0  0  0  0  0  0  0  0
   21.9207  -37.0652   10.7740 N   0  0  0  0  0  0  0  0  0  0  0  0
   22.0343  -35.7586   10.4864 C   0  0  0  0  0  0  0  0  0  0  0  0
   19.6005  -30.6688   13.2174 C   0  0  0  0  0  0  0  0  0  0  0  0
   17.6129  -30.9914   11.2563 O   0  0  0  0  0  0  0  0  0  0  0  0
   17.2794  -30.8381   12.4263 C   0  0  0  0  0  0  0  0  0  0  0  0
   18.1838  -30.7138   13.4509 N   0  0  0  0  0  0  0  0  0  0  0  0
   17.8511  -30.6537   14.3755 H   0  0  0  0  0  0  0  0  0  0  0  0
   15.8297  -30.8004   12.7920 C   0  0  0  0  0  0  0  0  0  0  0  0
   14.9393  -31.5239   11.9790 C   0  0  0  0  0  0  0  0  0  0  0  0
   13.5666  -31.5389   12.2751 C   0  0  0  0  0  0  0  0  0  0  0  0
   13.0580  -30.8361   13.3758 C   0  0  0  0  0  0  0  0  0  0  0  0
   13.9439  -30.1225   14.1704 C   0  0  0  0  0  0  0  0  0  0  0  0
   13.5196  -29.4117   15.2616 O   0  0  0  0  0  0  0  0  0  0  0  0
   15.3143  -30.0997   13.8892 C   0  0  0  0  0  0  0  0  0  0  0  0
   16.1133  -29.3614   14.7267 O   0  0  0  0  0  0  0  0  0  0  0  0
   12.6103  -29.3987   15.4876 H   0  0  0  0  0  0  0  0  0  0  0  0
   15.7354  -28.9043   15.4522 H   0  0  0  0  0  0  0  0  0  0  0  0
   12.6459  -32.3029   11.4225 N   0  0  0  0  0  0  0  0  0  0  0  0
   12.2675  -31.7807   10.3658 O   0  0  0  0  0  0  0  0  0  0  0  0
   12.3031  -33.4269   11.8167 O   0  0  0  0  0  0  0  0  0  0  0  0
 23 24  2  0
 24 25  1  0
 25 22  1  0
 22  1  1  0
  1  2  2  0
  3  2  1  0
  3  4  1  0
  4  5  1  0
  5 12  1  0
 12 13  1  0
 13 14  2  0
 14 15  1  0
 15 16  2  0
 16 17  1  0
 17 18  2  0
 18 19  1  0
 18 20  1  0
 20 21  2  0
  5  6  1  0
  6  7  1  0
  6  8  1  0
  8  9  1  0
 24 27  1  0
 27 28  2  0
 28 29  1  0
 29 37  1  0
 37 38  2  0
 37 39  1  0
 29 30  2  0
 30 31  1  0
 31 32  1  0
 31 33  2  0
 33 34  1  0
  8  3  1  0
 33 27  1  0
 21 12  1  0
 21 15  1  0
 25 26  1  0
  7 10  1  0
  9 11  1  0
 32 35  1  0
 34 36  1  0
M  CHG 1  37   1
M  CHG 1  39  -1
M  END
> <minimizedAffinity>
-9.60272

> <CNNscore>
0.3080687821

> <CNNaffinity>
6.1928725243

> <CNN_VS>
1.9078307152

> <CNNaffinity_variance>
0.1979641169

$$$$



 39 42  0  0  0  0  0  0  0  0999 V2000
   19.9684  -32.4942   12.9534 C   0  0  0  0  0  0  0  0  0  0  0  0
   21.2128  -32.9895   13.0709 C   0  0  0  0  0  0  0  0  0  0  0  0
   21.6201  -34.3698   12.6432 C   0  0  0  0  0  0  0  0  0  0  0  0
   22.9534  -34.5890   13.1453 O   0  0  0  0  0  0  0  0  0  0  0  0
   22.9045  -35.6575   14.1170 C   0  0  0  0  0  0  0  0  0  0  0  0
   21.4386  -35.8130   14.5261 C   0  0  0  0  0  0  0  0  0  0  0  0
   21.0903  -37.1157   14.9824 O   0  0  0  0  0  0  0  0  0  0  0  0
   20.7334  -35.4775   13.2227 C   0  0  0  0  0  0  0  0  0  0  0  0
   20.7599  -36.6509   12.3891 O   0  0  0  0  0  0  0  0  0  0  0  0
   21.2878  -37.7647   14.2891 H   0  0  0  0  0  0  0  0  0  0  0  0
   21.6762  -36.9509   12.2822 H   0  0  0  0  0  0  0  0  0  0  0  0
   23.7746  -35.3217   15.2263 N   0  0  0  0  0  0  0  0  0  0  0  0
   24.4098  -34.1271   15.4458 C   0  0  0  0  0  0  0  0  0  0  0  0
   25.0927  -34.1316   16.5729 N   0  0  0  0  0  0  0  0  0  0  0  0
   24.9021  -35.3877   17.0928 C   0  0  0  0  0  0  0  0  0  0  0  0
   25.3553  -36.0097   18.2503 C   0  0  0  0  0  0  0  0  0  0  0  0
   24.9981  -37.2939   18.5041 N   0  0  0  0  0  0  0  0  0  0  0  0
   24.2036  -37.9220   17.6073 C   0  0  0  0  0  0  0  0  0  0  0  0
   23.8759  -39.1909   17.8952 F   0  0  0  0  0  0  0  0  0  0  0  0
   23.7082  -37.4239   16.4551 N   0  0  0  0  0  0  0  0  0  0  0  0
   24.0945  -36.1519   16.2660 C   0  0  0  0  0  0  0  0  0  0  0  0
   19.5992  -31.0968   13.3427 C   0  0  0  0  0  0  0  0  0  0  0  0
   17.6545  -31.0183   11.3148 O   0  0  0  0  0  0  0  0  0  0  0  0
   17.2972  -30.9907   12.4874 C   0  0  0  0  0  0  0  0  0  0  0  0
   18.1764  -31.0656   13.5384 N   0  0  0  0  0  0  0  0  0  0  0  0
   17.8207  -31.0990   14.4558 H   0  0  0  0  0  0  0  0  0  0  0  0
   15.8434  -30.8920   12.8242 C   0  0  0  0  0  0  0  0  0  0  0  0
   14.9410  -31.5895   12.0017 C   0  0  0  0  0  0  0  0  0  0  0  0
   13.5632  -31.5472   12.2710 C   0  0  0  0  0  0  0  0  0  0  0  0
   13.0617  -30.8123   13.3538 C   0  0  0  0  0  0  0  0  0  0  0  0
   13.9596  -30.1247   14.1578 C   0  0  0  0  0  0  0  0  0  0  0  0
   13.5427  -29.3852   15.2327 O   0  0  0  0  0  0  0  0  0  0  0  0
   15.3350  -30.1589   13.9033 C   0  0  0  0  0  0  0  0  0  0  0  0
   16.1462  -29.4428   14.7483 O   0  0  0  0  0  0  0  0  0  0  0  0
   12.6305  -29.3339   15.4406 H   0  0  0  0  0  0  0  0  0  0  0  0
   15.7728  -28.9629   15.4612 H   0  0  0  0  0  0  0  0  0  0  0  0
   12.6297  -32.2844   11.4088 N   0  0  0  0  0  0  0  0  0  0  0  0
   12.2221  -31.7228   10.3837 O   0  0  0  0  0  0  0  0  0  0  0  0
   12.3062  -33.4270   11.7638 O   0  0  0  0  0  0  0  0  0  0  0  0
 23 24  2  0
 24 25  1  0
 25 22  1  0
 22  1  1  0
  1  2  2  0
  3  2  1  0
  3  4  1  0
  4  5  1  0
  5 12  1  0
 12 13  1  0
 13 14  2  0
 14 15  1  0
 15 16  2  0
 16 17  1  0
 17 18  2  0
 18 19  1  0
 18 20  1  0
 20 21  2  0
  5  6  1  0
  6  7  1  0
  6  8  1  0
  8  9  1  0
 24 27  1  0
 27 28  2  0
 28 29  1  0
 29 37  1  0
 37 38  2  0
 37 39  1  0
 29 30  2  0
 30 31  1  0
 31 32  1  0
 31 33  2  0
 33 34  1  0
  8  3  1  0
 33 27  1  0
 21 12  1  0
 21 15  1  0
 25 26  1  0
  7 10  1  0
  9 11  1  0
 32 35  1  0
 34 36  1  0
M  CHG 1  37   1
M  CHG 1  39  -1
M  END
> <minimizedAffinity>
-9.71714

> <CNNscore>
0.2851419449

> <CNNaffinity>
5.3693032265

> <CNN_VS>
1.5310136080

> <CNNaffinity_variance>
0.8576493263

$$$$



 39 42  0  0  0  0  0  0  0  0999 V2000
   20.4138  -30.1837   10.4070 C   0  0  0  0  0  0  0  0  0  0  0  0
   20.2683  -29.1551   11.2605 C   0  0  0  0  0  0  0  0  0  0  0  0
   19.9441  -29.3025   12.7189 C   0  0  0  0  0  0  0  0  0  0  0  0
   18.5136  -29.1791   12.8460 O   0  0  0  0  0  0  0  0  0  0  0  0
   17.9869  -30.4407   13.3140 C   0  0  0  0  0  0  0  0  0  0  0  0
   19.0733  -31.4892   13.0673 C   0  0  0  0  0  0  0  0  0  0  0  0
   19.0192  -32.6097   13.9438 O   0  0  0  0  0  0  0  0  0  0  0  0
   20.3309  -30.6681   13.2976 C   0  0  0  0  0  0  0  0  0  0  0  0
   20.5523  -30.5845   14.7176 O   0  0  0  0  0  0  0  0  0  0  0  0
   19.0870  -32.3053   14.8623 H   0  0  0  0  0  0  0  0  0  0  0  0
   19.7588  -30.2298   15.1482 H   0  0  0  0  0  0  0  0  0  0  0  0
   16.7513  -30.7221   12.6109 N   0  0  0  0  0  0  0  0  0  0  0  0
   16.6179  -31.2761   11.3643 C   0  0  0  0  0  0  0  0  0  0  0  0
   15.3536  -31.4424   11.0314 N   0  0  0  0  0  0  0  0  0  0  0  0
   14.6432  -30.9601   12.1024 C   0  0  0  0  0  0  0  0  0  0  0  0
   13.2819  -30.8552   12.3629 C   0  0  0  0  0  0  0  0  0  0  0  0
   12.8642  -30.3171   13.5364 N   0  0  0  0  0  0  0  0  0  0  0  0
   13.8044  -29.9013   14.4155 C   0  0  0  0  0  0  0  0  0  0  0  0
   13.3490  -29.3736   15.5621 F   0  0  0  0  0  0  0  0  0  0  0  0
   15.1453  -29.9491   14.2713 N   0  0  0  0  0  0  0  0  0  0  0  0
   15.4915  -30.4945   13.0941 C   0  0  0  0  0  0  0  0  0  0  0  0
   20.7855  -30.0116    8.9673 C   0  0  0  0  0  0  0  0  0  0  0  0
   21.3755  -32.2317   10.5870 O   0  0  0  0  0  0  0  0  0  0  0  0
   21.6856  -32.2575    9.4009 C   0  0  0  0  0  0  0  0  0  0  0  0
   21.3995  -31.2350    8.5314 N   0  0  0  0  0  0  0  0  0  0  0  0
   21.6221  -31.3434    7.5786 H   0  0  0  0  0  0  0  0  0  0  0  0
   22.3906  -33.4502    8.8378 C   0  0  0  0  0  0  0  0  0  0  0  0
   23.3581  -34.0707    9.6479 C   0  0  0  0  0  0  0  0  0  0  0  0
   24.0477  -35.2022    9.1825 C   0  0  0  0  0  0  0  0  0  0  0  0
   23.7915  -35.7309    7.9101 C   0  0  0  0  0  0  0  0  0  0  0  0
   22.8374  -35.1098    7.1167 C   0  0  0  0  0  0  0  0  0  0  0  0
   22.5346  -35.5695    5.8626 O   0  0  0  0  0  0  0  0  0  0  0  0
   22.1409  -33.9831    7.5673 C   0  0  0  0  0  0  0  0  0  0  0  0
   21.2201  -33.4321    6.7109 O   0  0  0  0  0  0  0  0  0  0  0  0
   22.9764  -36.3214    5.5199 H   0  0  0  0  0  0  0  0  0  0  0  0
   21.0777  -33.8142    5.8673 H   0  0  0  0  0  0  0  0  0  0  0  0
   25.0524  -35.8463   10.0394 N   0  0  0  0  0  0  0  0  0  0  0  0
   26.1405  -35.2745   10.1858 O   0  0  0  0  0  0  0  0  0  0  0  0
   24.7467  -36.9272   10.5634 O   0  0  0  0  0  0  0  0  0  0  0  0
 23 24  2  0
 24 25  1  0
 25 22  1  0
 22  1  1  0
  1  2  2  0
  3  2  1  0
  3  4  1  0
  4  5  1  0
  5 12  1  0
 12 13  1  0
 13 14  2  0
 14 15  1  0
 15 16  2  0
 16 17  1  0
 17 18  2  0
 18 19  1  0
 18 20  1  0
 20 21  2  0
  5  6  1  0
  6  7  1  0
  6  8  1  0
  8  9  1  0
 24 27  1  0
 27 28  2  0
 28 29  1  0
 29 37  1  0
 37 38  2  0
 37 39  1  0
 29 30  2  0
 30 31  1  0
 31 32  1  0
 31 33  2  0
 33 34  1  0
  8  3  1  0
 33 27  1  0
 21 12  1  0
 21 15  1  0
 25 26  1  0
  7 10  1  0
  9 11  1  0
 32 35  1  0
 34 36  1  0
M  CHG 1  37   1
M  CHG 1  39  -1
M  END
> <minimizedAffinity>
-7.94083

> <CNNscore>
0.2795846462

> <CNNaffinity>
5.9934744835

> <CNN_VS>
1.6756834984

> <CNNaffinity_variance>
0.0229101982

$$$$
