


 27 30  0  0  0  0  0  0  0  0999 V2000
  -17.5888   36.4224    2.0547 C   0  0  0  0  0  0  0  0  0  0  0  0
  -18.0183   37.2677    3.0890 C   0  0  0  0  0  0  0  0  0  0  0  0
  -18.8911   38.3240    2.8339 C   0  0  0  0  0  0  0  0  0  0  0  0
  -19.3564   38.5666    1.5362 C   0  0  0  0  0  0  0  0  0  0  0  0
  -18.9352   37.7376    0.4741 C   0  0  0  0  0  0  0  0  0  0  0  0
  -19.2053   37.6962   -0.9330 C   0  0  0  0  0  0  0  0  0  0  0  0
  -18.5041   36.6222   -1.4734 C   0  0  0  0  0  0  0  0  0  0  0  0
  -17.8261   36.0342   -0.4283 N   0  0  0  0  0  0  0  0  0  0  0  0
  -18.0689   36.6857    0.7596 C   0  0  0  0  0  0  0  0  0  0  0  0
  -17.2417   35.2472   -0.5196 H   0  0  0  0  0  0  0  0  0  0  0  0
  -18.3746   36.1135   -2.8405 C   0  0  0  0  0  0  0  0  0  0  0  0
  -19.4380   35.4359   -3.4546 C   0  0  0  0  0  0  0  0  0  0  0  0
  -19.3129   34.9536   -4.7592 C   0  0  0  0  0  0  0  0  0  0  0  0
  -18.1247   35.1511   -5.4509 C   0  0  0  0  0  0  0  0  0  0  0  0
  -18.0039   34.6884   -6.7021 F   0  0  0  0  0  0  0  0  0  0  0  0
  -17.0591   35.8215   -4.8634 C   0  0  0  0  0  0  0  0  0  0  0  0
  -17.1835   36.3035   -3.5583 C   0  0  0  0  0  0  0  0  0  0  0  0
  -20.0616   38.5863   -1.7030 C   0  0  0  0  0  0  0  0  0  0  0  0
  -21.4065   38.7607   -1.3551 C   0  0  0  0  0  0  0  0  0  0  0  0
  -22.2200   39.6181   -2.0985 C   0  0  0  0  0  0  0  0  0  0  0  0
  -21.6935   40.3082   -3.1898 C   0  0  0  0  0  0  0  0  0  0  0  0
  -20.3539   40.1431   -3.5393 C   0  0  0  0  0  0  0  0  0  0  0  0
  -19.5388   39.2856   -2.7976 C   0  0  0  0  0  0  0  0  0  0  0  0
  -16.2952   34.8822    3.3643 O   0  0  0  0  0  0  0  0  0  0  0  0
  -16.6708   35.2838    2.2765 C   0  0  0  0  0  0  0  0  0  0  0  0
  -16.2673   34.7036    1.1335 O   0  0  0  0  0  0  0  0  0  0  0  0
  -16.5703   35.0311    0.3095 H   0  0  0  0  0  0  0  0  0  0  0  0
 24 25  2  0
 25 26  1  0
 25  1  1  0
  1  2  2  0
  2  3  1  0
  3  4  2  0
  4  5  1  0
  5  6  1  0
  6 18  1  0
 18 19  2  0
 19 20  1  0
 20 21  2  0
 21 22  1  0
 22 23  2  0
  6  7  2  0
  7 11  1  0
 11 12  2  0
 12 13  1  0
 13 14  2  0
 14 15  1  0
 14 16  1  0
 16 17  2  0
  7  8  1  0
  8  9  1  0
  9  1  1  0
  9  5  2  0
 23 18  1  0
 17 11  1  0
 26 27  1  0
  8 10  1  0
M  END
> <minimizedAffinity>
-10.70836

> <CNNscore>
0.9380064011

> <CNNaffinity>
7.0188450813

> <CNN_VS>
6.5837216377

> <CNNaffinity_variance>
0.0230987500

$$$$



 27 30  0  0  0  0  0  0  0  0999 V2000
  -18.1748   36.5285    1.5447 C   0  0  0  0  0  0  0  0  0  0  0  0
  -18.6930   37.4346    2.4824 C   0  0  0  0  0  0  0  0  0  0  0  0
  -19.4651   38.5215    2.0761 C   0  0  0  0  0  0  0  0  0  0  0  0
  -19.7378   38.7347    0.7197 C   0  0  0  0  0  0  0  0  0  0  0  0
  -19.2232   37.8442   -0.2472 C   0  0  0  0  0  0  0  0  0  0  0  0
  -19.3036   37.7599   -1.6758 C   0  0  0  0  0  0  0  0  0  0  0  0
  -18.5953   36.6319   -2.0798 C   0  0  0  0  0  0  0  0  0  0  0  0
  -18.0969   36.0535   -0.9334 N   0  0  0  0  0  0  0  0  0  0  0  0
  -18.4615   36.7631    0.1883 C   0  0  0  0  0  0  0  0  0  0  0  0
  -17.5490   35.2356   -0.9181 H   0  0  0  0  0  0  0  0  0  0  0  0
  -18.3110   36.0632   -3.3991 C   0  0  0  0  0  0  0  0  0  0  0  0
  -17.0445   36.2110   -3.9831 C   0  0  0  0  0  0  0  0  0  0  0  0
  -16.7751   35.6659   -5.2404 C   0  0  0  0  0  0  0  0  0  0  0  0
  -17.7720   34.9706   -5.9128 C   0  0  0  0  0  0  0  0  0  0  0  0
  -17.5144   34.4479   -7.1188 F   0  0  0  0  0  0  0  0  0  0  0  0
  -19.0331   34.8097   -5.3524 C   0  0  0  0  0  0  0  0  0  0  0  0
  -19.3031   35.3554   -4.0953 C   0  0  0  0  0  0  0  0  0  0  0  0
  -19.9991   38.6595   -2.5842 C   0  0  0  0  0  0  0  0  0  0  0  0
  -21.3185   38.4004   -2.9745 C   0  0  0  0  0  0  0  0  0  0  0  0
  -21.9784   39.2701   -3.8449 C   0  0  0  0  0  0  0  0  0  0  0  0
  -21.3256   40.4044   -4.3262 C   0  0  0  0  0  0  0  0  0  0  0  0
  -20.0133   40.6715   -3.9382 C   0  0  0  0  0  0  0  0  0  0  0  0
  -19.3513   39.8026   -3.0684 C   0  0  0  0  0  0  0  0  0  0  0  0
  -16.6835   34.6869    1.1633 O   0  0  0  0  0  0  0  0  0  0  0  0
  -17.3581   35.3559    1.9270 C   0  0  0  0  0  0  0  0  0  0  0  0
  -17.4228   35.0757    3.2397 O   0  0  0  0  0  0  0  0  0  0  0  0
  -17.9487   35.6051    3.8063 H   0  0  0  0  0  0  0  0  0  0  0  0
 24 25  2  0
 25 26  1  0
 25  1  1  0
  1  2  2  0
  2  3  1  0
  3  4  2  0
  4  5  1  0
  5  6  1  0
  6 18  1  0
 18 19  2  0
 19 20  1  0
 20 21  2  0
 21 22  1  0
 22 23  2  0
  6  7  2  0
  7 11  1  0
 11 12  2  0
 12 13  1  0
 13 14  2  0
 14 15  1  0
 14 16  1  0
 16 17  2  0
  7  8  1  0
  8  9  1  0
  9  1  1  0
  9  5  2  0
 23 18  1  0
 17 11  1  0
 26 27  1  0
  8 10  1  0
M  END
> <minimizedAffinity>
-9.66894

> <CNNscore>
0.9106542468

> <CNNaffinity>
6.8411574364

> <CNN_VS>
6.2299289703

> <CNNaffinity_variance>
0.0316322707

$$$$



 27 30  0  0  0  0  0  0  0  0999 V2000
  -19.3973   37.9358    1.0919 C   0  0  0  0  0  0  0  0  0  0  0  0
  -20.1388   38.9054    1.7841 C   0  0  0  0  0  0  0  0  0  0  0  0
  -21.0450   39.7256    1.1144 C   0  0  0  0  0  0  0  0  0  0  0  0
  -21.2328   39.6015   -0.2672 C   0  0  0  0  0  0  0  0  0  0  0  0
  -20.4949   38.6403   -0.9913 C   0  0  0  0  0  0  0  0  0  0  0  0
  -20.4374   38.2504   -2.3694 C   0  0  0  0  0  0  0  0  0  0  0  0
  -19.5176   37.2122   -2.4839 C   0  0  0  0  0  0  0  0  0  0  0  0
  -19.0289   36.9831   -1.2166 N   0  0  0  0  0  0  0  0  0  0  0  0
  -19.6022   37.8297   -0.2950 C   0  0  0  0  0  0  0  0  0  0  0  0
  -18.3546   36.3000   -0.9975 H   0  0  0  0  0  0  0  0  0  0  0  0
  -19.0299   36.4457   -3.6325 C   0  0  0  0  0  0  0  0  0  0  0  0
  -19.7046   35.2932   -4.0610 C   0  0  0  0  0  0  0  0  0  0  0  0
  -19.2387   34.5652   -5.1580 C   0  0  0  0  0  0  0  0  0  0  0  0
  -18.0992   34.9912   -5.8282 C   0  0  0  0  0  0  0  0  0  0  0  0
  -17.6517   34.2931   -6.8802 F   0  0  0  0  0  0  0  0  0  0  0  0
  -17.4163   36.1312   -5.4229 C   0  0  0  0  0  0  0  0  0  0  0  0
  -17.8814   36.8592   -4.3253 C   0  0  0  0  0  0  0  0  0  0  0  0
  -21.1942   38.8013   -3.4840 C   0  0  0  0  0  0  0  0  0  0  0  0
  -21.9955   39.9363   -3.3113 C   0  0  0  0  0  0  0  0  0  0  0  0
  -22.7165   40.4588   -4.3868 C   0  0  0  0  0  0  0  0  0  0  0  0
  -22.6374   39.8530   -5.6403 C   0  0  0  0  0  0  0  0  0  0  0  0
  -21.8378   38.7252   -5.8210 C   0  0  0  0  0  0  0  0  0  0  0  0
  -21.1165   38.2007   -4.7465 C   0  0  0  0  0  0  0  0  0  0  0  0
  -18.5701   36.5479    2.8669 O   0  0  0  0  0  0  0  0  0  0  0  0
  -18.4306   37.0363    1.7589 C   0  0  0  0  0  0  0  0  0  0  0  0
  -17.3401   36.7909    1.0130 O   0  0  0  0  0  0  0  0  0  0  0  0
  -17.2563   37.1783    0.1640 H   0  0  0  0  0  0  0  0  0  0  0  0
 24 25  2  0
 25 26  1  0
 25  1  1  0
  1  2  2  0
  2  3  1  0
  3  4  2  0
  4  5  1  0
  5  6  1  0
  6 18  1  0
 18 19  2  0
 19 20  1  0
 20 21  2  0
 21 22  1  0
 22 23  2  0
  6  7  2  0
  7 11  1  0
 11 12  2  0
 12 13  1  0
 13 14  2  0
 14 15  1  0
 14 16  1  0
 16 17  2  0
  7  8  1  0
  8  9  1  0
  9  1  1  0
  9  5  2  0
 23 18  1  0
 17 11  1  0
 26 27  1  0
  8 10  1  0
M  END
> <minimizedAffinity>
-8.83712

> <CNNscore>
0.7508870363

> <CNNaffinity>
6.4182548523

> <CNN_VS>
4.8193845749

> <CNNaffinity_variance>
0.0750112906

$$$$



 27 30  0  0  0  0  0  0  0  0999 V2000
  -17.0785   35.2837    0.3212 C   0  0  0  0  0  0  0  0  0  0  0  0
  -16.0947   34.4033   -0.1541 C   0  0  0  0  0  0  0  0  0  0  0  0
  -15.8822   34.2389   -1.5217 C   0  0  0  0  0  0  0  0  0  0  0  0
  -16.6502   34.9481   -2.4527 C   0  0  0  0  0  0  0  0  0  0  0  0
  -17.6526   35.8351   -2.0041 C   0  0  0  0  0  0  0  0  0  0  0  0
  -18.5940   36.6966   -2.6568 C   0  0  0  0  0  0  0  0  0  0  0  0
  -19.3279   37.3538   -1.6737 C   0  0  0  0  0  0  0  0  0  0  0  0
  -18.8505   36.9015   -0.4634 N   0  0  0  0  0  0  0  0  0  0  0  0
  -17.8376   35.9848   -0.6323 C   0  0  0  0  0  0  0  0  0  0  0  0
  -19.1908   37.1965    0.4121 H   0  0  0  0  0  0  0  0  0  0  0  0
  -20.4290   38.3170   -1.7401 C   0  0  0  0  0  0  0  0  0  0  0  0
  -20.9849   38.6830   -2.9746 C   0  0  0  0  0  0  0  0  0  0  0  0
  -22.0363   39.6002   -3.0352 C   0  0  0  0  0  0  0  0  0  0  0  0
  -22.5337   40.1497   -1.8605 C   0  0  0  0  0  0  0  0  0  0  0  0
  -23.5419   41.0297   -1.9179 F   0  0  0  0  0  0  0  0  0  0  0  0
  -22.0001   39.8000   -0.6263 C   0  0  0  0  0  0  0  0  0  0  0  0
  -20.9481   38.8832   -0.5653 C   0  0  0  0  0  0  0  0  0  0  0  0
  -18.7794   36.8938   -4.0869 C   0  0  0  0  0  0  0  0  0  0  0  0
  -19.5710   36.0120   -4.8325 C   0  0  0  0  0  0  0  0  0  0  0  0
  -19.7447   36.2102   -6.2037 C   0  0  0  0  0  0  0  0  0  0  0  0
  -19.1321   37.2917   -6.8357 C   0  0  0  0  0  0  0  0  0  0  0  0
  -18.3461   38.1767   -6.0989 C   0  0  0  0  0  0  0  0  0  0  0  0
  -18.1706   37.9799   -4.7276 C   0  0  0  0  0  0  0  0  0  0  0  0
  -18.4236   35.4130    2.3049 O   0  0  0  0  0  0  0  0  0  0  0  0
  -17.3356   35.4990    1.7620 C   0  0  0  0  0  0  0  0  0  0  0  0
  -16.2260   35.8103    2.4531 O   0  0  0  0  0  0  0  0  0  0  0  0
  -15.4011   35.8703    2.0127 H   0  0  0  0  0  0  0  0  0  0  0  0
 24 25  2  0
 25 26  1  0
 25  1  1  0
  1  2  2  0
  2  3  1  0
  3  4  2  0
  4  5  1  0
  5  6  1  0
  6 18  1  0
 18 19  2  0
 19 20  1  0
 20 21  2  0
 21 22  1  0
 22 23  2  0
  6  7  2  0
  7 11  1  0
 11 12  2  0
 12 13  1  0
 13 14  2  0
 14 15  1  0
 14 16  1  0
 16 17  2  0
  7  8  1  0
  8  9  1  0
  9  1  1  0
  9  5  2  0
 23 18  1  0
 17 11  1  0
 26 27  1  0
  8 10  1  0
M  END
> <minimizedAffinity>
-9.68329

> <CNNscore>
0.7107406259

> <CNNaffinity>
6.6596522331

> <CNN_VS>
4.7332854271

> <CNNaffinity_variance>
0.0818755254

$$$$



 27 30  0  0  0  0  0  0  0  0999 V2000
  -30.0212   47.0162    4.4327 C   0  0  0  0  0  0  0  0  0  0  0  0
  -30.5991   48.2904    4.3268 C   0  0  0  0  0  0  0  0  0  0  0  0
  -30.0780   49.3732    5.0329 C   0  0  0  0  0  0  0  0  0  0  0  0
  -28.9660   49.2113    5.8676 C   0  0  0  0  0  0  0  0  0  0  0  0
  -28.3684   47.9394    6.0002 C   0  0  0  0  0  0  0  0  0  0  0  0
  -27.2529   47.4282    6.7411 C   0  0  0  0  0  0  0  0  0  0  0  0
  -27.1313   46.0720    6.4531 C   0  0  0  0  0  0  0  0  0  0  0  0
  -28.1438   45.7690    5.5696 N   0  0  0  0  0  0  0  0  0  0  0  0
  -28.9056   46.8776    5.2772 C   0  0  0  0  0  0  0  0  0  0  0  0
  -28.3026   44.8727    5.1947 H   0  0  0  0  0  0  0  0  0  0  0  0
  -26.2087   45.0391    6.9292 C   0  0  0  0  0  0  0  0  0  0  0  0
  -25.6876   45.0912    8.2303 C   0  0  0  0  0  0  0  0  0  0  0  0
  -24.8097   44.1038    8.6828 C   0  0  0  0  0  0  0  0  0  0  0  0
  -24.4547   43.0626    7.8347 C   0  0  0  0  0  0  0  0  0  0  0  0
  -23.6125   42.1156    8.2679 F   0  0  0  0  0  0  0  0  0  0  0  0
  -24.9605   42.9896    6.5428 C   0  0  0  0  0  0  0  0  0  0  0  0
  -25.8381   43.9773    6.0895 C   0  0  0  0  0  0  0  0  0  0  0  0
  -26.3678   48.1583    7.6367 C   0  0  0  0  0  0  0  0  0  0  0  0
  -25.0785   48.5200    7.2279 C   0  0  0  0  0  0  0  0  0  0  0  0
  -24.2370   49.2219    8.0932 C   0  0  0  0  0  0  0  0  0  0  0  0
  -24.6803   49.5693    9.3688 C   0  0  0  0  0  0  0  0  0  0  0  0
  -25.9646   49.2166    9.7812 C   0  0  0  0  0  0  0  0  0  0  0  0
  -26.8075   48.5140    8.9176 C   0  0  0  0  0  0  0  0  0  0  0  0
  -31.4024   45.0828    4.0933 O   0  0  0  0  0  0  0  0  0  0  0  0
  -30.5320   45.8387    3.6973 C   0  0  0  0  0  0  0  0  0  0  0  0
  -29.9336   45.6621    2.5072 O   0  0  0  0  0  0  0  0  0  0  0  0
  -29.2669   46.2572    2.2251 H   0  0  0  0  0  0  0  0  0  0  0  0
 24 25  2  0
 25 26  1  0
 25  1  1  0
  1  2  2  0
  2  3  1  0
  3  4  2  0
  4  5  1  0
  5  6  1  0
  6 18  1  0
 18 19  2  0
 19 20  1  0
 20 21  2  0
 21 22  1  0
 22 23  2  0
  6  7  2  0
  7 11  1  0
 11 12  2  0
 12 13  1  0
 13 14  2  0
 14 15  1  0
 14 16  1  0
 16 17  2  0
  7  8  1  0
  8  9  1  0
  9  1  1  0
  9  5  2  0
 23 18  1  0
 17 11  1  0
 26 27  1  0
  8 10  1  0
M  END
> <minimizedAffinity>
8.73535

> <CNNscore>
0.6276480556

> <CNNaffinity>
4.6064925194

> <CNN_VS>
2.8912560940

> <CNNaffinity_variance>
0.0199784506

$$$$



 27 30  0  0  0  0  0  0  0  0999 V2000
  -17.8362   36.5343    1.5311 C   0  0  0  0  0  0  0  0  0  0  0  0
  -16.8413   35.5519    1.6495 C   0  0  0  0  0  0  0  0  0  0  0  0
  -16.3966   34.8460    0.5330 C   0  0  0  0  0  0  0  0  0  0  0  0
  -16.9369   35.1005   -0.7330 C   0  0  0  0  0  0  0  0  0  0  0  0
  -17.9448   36.0777   -0.8814 C   0  0  0  0  0  0  0  0  0  0  0  0
  -18.6958   36.5823   -1.9931 C   0  0  0  0  0  0  0  0  0  0  0  0
  -19.5514   37.5725   -1.5192 C   0  0  0  0  0  0  0  0  0  0  0  0
  -19.3301   37.6620   -0.1626 N   0  0  0  0  0  0  0  0  0  0  0  0
  -18.3642   36.7723    0.2500 C   0  0  0  0  0  0  0  0  0  0  0  0
  -19.8031   38.2839    0.4364 H   0  0  0  0  0  0  0  0  0  0  0  0
  -20.5584   38.4072   -2.1780 C   0  0  0  0  0  0  0  0  0  0  0  0
  -21.2424   39.4006   -1.4623 C   0  0  0  0  0  0  0  0  0  0  0  0
  -22.2007   40.1968   -2.0933 C   0  0  0  0  0  0  0  0  0  0  0  0
  -22.4734   40.0010   -3.4411 C   0  0  0  0  0  0  0  0  0  0  0  0
  -23.3927   40.7640   -4.0467 F   0  0  0  0  0  0  0  0  0  0  0  0
  -21.8064   39.0245   -4.1704 C   0  0  0  0  0  0  0  0  0  0  0  0
  -20.8483   38.2275   -3.5395 C   0  0  0  0  0  0  0  0  0  0  0  0
  -18.6071   36.1746   -3.3875 C   0  0  0  0  0  0  0  0  0  0  0  0
  -17.7771   36.8622   -4.2810 C   0  0  0  0  0  0  0  0  0  0  0  0
  -17.6969   36.4628   -5.6165 C   0  0  0  0  0  0  0  0  0  0  0  0
  -18.4419   35.3727   -6.0649 C   0  0  0  0  0  0  0  0  0  0  0  0
  -19.2671   34.6801   -5.1799 C   0  0  0  0  0  0  0  0  0  0  0  0
  -19.3492   35.0784   -3.8440 C   0  0  0  0  0  0  0  0  0  0  0  0
  -19.4385   37.8261    2.7658 O   0  0  0  0  0  0  0  0  0  0  0  0
  -18.3346   37.3158    2.6840 C   0  0  0  0  0  0  0  0  0  0  0  0
  -17.4340   37.4222    3.6756 O   0  0  0  0  0  0  0  0  0  0  0  0
  -16.5918   37.0207    3.5887 H   0  0  0  0  0  0  0  0  0  0  0  0
 24 25  2  0
 25 26  1  0
 25  1  1  0
  1  2  2  0
  2  3  1  0
  3  4  2  0
  4  5  1  0
  5  6  1  0
  6 18  1  0
 18 19  2  0
 19 20  1  0
 20 21  2  0
 21 22  1  0
 22 23  2  0
  6  7  2  0
  7 11  1  0
 11 12  2  0
 12 13  1  0
 13 14  2  0
 14 15  1  0
 14 16  1  0
 16 17  2  0
  7  8  1  0
  8  9  1  0
  9  1  1  0
  9  5  2  0
 23 18  1  0
 17 11  1  0
 26 27  1  0
  8 10  1  0
M  END
> <minimizedAffinity>
-9.88994

> <CNNscore>
0.5335233808

> <CNNaffinity>
6.3808293343

> <CNN_VS>
3.4043216705

> <CNNaffinity_variance>
0.1673269868

$$$$



 27 30  0  0  0  0  0  0  0  0999 V2000
   -8.2969   26.6567    5.1347 C   0  0  0  0  0  0  0  0  0  0  0  0
   -7.4328   26.4331    4.0520 C   0  0  0  0  0  0  0  0  0  0  0  0
   -7.9347   26.1608    2.7806 C   0  0  0  0  0  0  0  0  0  0  0  0
   -9.3153   26.1011    2.5569 C   0  0  0  0  0  0  0  0  0  0  0  0
  -10.2089   26.3139    3.6288 C   0  0  0  0  0  0  0  0  0  0  0  0
  -11.6365   26.3289    3.7558 C   0  0  0  0  0  0  0  0  0  0  0  0
  -11.9466   26.6174    5.0816 C   0  0  0  0  0  0  0  0  0  0  0  0
  -10.7454   26.7676    5.7389 N   0  0  0  0  0  0  0  0  0  0  0  0
   -9.6793   26.5913    4.8863 C   0  0  0  0  0  0  0  0  0  0  0  0
  -10.6602   26.9748    6.6975 H   0  0  0  0  0  0  0  0  0  0  0  0
  -13.2195   26.7344    5.7962 C   0  0  0  0  0  0  0  0  0  0  0  0
  -13.4815   27.8445    6.6123 C   0  0  0  0  0  0  0  0  0  0  0  0
  -14.6971   27.9549    7.2910 C   0  0  0  0  0  0  0  0  0  0  0  0
  -15.6520   26.9559    7.1517 C   0  0  0  0  0  0  0  0  0  0  0  0
  -16.8178   27.0609    7.8027 F   0  0  0  0  0  0  0  0  0  0  0  0
  -15.4150   25.8485    6.3468 C   0  0  0  0  0  0  0  0  0  0  0  0
  -14.1991   25.7374    5.6683 C   0  0  0  0  0  0  0  0  0  0  0  0
  -12.6267   26.1021    2.7134 C   0  0  0  0  0  0  0  0  0  0  0  0
  -12.8863   24.8087    2.2445 C   0  0  0  0  0  0  0  0  0  0  0  0
  -13.8393   24.6006    1.2455 C   0  0  0  0  0  0  0  0  0  0  0  0
  -14.5402   25.6821    0.7132 C   0  0  0  0  0  0  0  0  0  0  0  0
  -14.2904   26.9725    1.1785 C   0  0  0  0  0  0  0  0  0  0  0  0
  -13.3372   27.1829    2.1770 C   0  0  0  0  0  0  0  0  0  0  0  0
   -8.3183   26.5529    7.5326 O   0  0  0  0  0  0  0  0  0  0  0  0
   -7.8131   26.9578    6.4998 C   0  0  0  0  0  0  0  0  0  0  0  0
   -6.7256   27.7472    6.5098 O   0  0  0  0  0  0  0  0  0  0  0  0
   -6.3558   28.0454    5.7022 H   0  0  0  0  0  0  0  0  0  0  0  0
 24 25  2  0
 25 26  1  0
 25  1  1  0
  1  2  2  0
  2  3  1  0
  3  4  2  0
  4  5  1  0
  5  6  1  0
  6 18  1  0
 18 19  2  0
 19 20  1  0
 20 21  2  0
 21 22  1  0
 22 23  2  0
  6  7  2  0
  7 11  1  0
 11 12  2  0
 12 13  1  0
 13 14  2  0
 14 15  1  0
 14 16  1  0
 16 17  2  0
  7  8  1  0
  8  9  1  0
  9  1  1  0
  9  5  2  0
 23 18  1  0
 17 11  1  0
 26 27  1  0
  8 10  1  0
M  END
> <minimizedAffinity>
7.58832

> <CNNscore>
0.5172312856

> <CNNaffinity>
5.0463213921

> <CNN_VS>
2.6101152897

> <CNNaffinity_variance>
0.2863762677

$$$$



 27 30  0  0  0  0  0  0  0  0999 V2000
  -13.0230   34.1457   -6.3194 C   0  0  0  0  0  0  0  0  0  0  0  0
  -12.5647   34.7040   -5.1163 C   0  0  0  0  0  0  0  0  0  0  0  0
  -13.4157   35.4521   -4.3048 C   0  0  0  0  0  0  0  0  0  0  0  0
  -14.7486   35.6659   -4.6754 C   0  0  0  0  0  0  0  0  0  0  0  0
  -15.2357   35.1232   -5.8841 C   0  0  0  0  0  0  0  0  0  0  0  0
  -16.5039   35.1413   -6.5518 C   0  0  0  0  0  0  0  0  0  0  0  0
  -16.3819   34.4029   -7.7252 C   0  0  0  0  0  0  0  0  0  0  0  0
  -15.0799   33.9555   -7.7704 N   0  0  0  0  0  0  0  0  0  0  0  0
  -14.3651   34.3740   -6.6710 C   0  0  0  0  0  0  0  0  0  0  0  0
  -14.7076   33.4058   -8.4973 H   0  0  0  0  0  0  0  0  0  0  0  0
  -17.3231   34.1016   -8.8059 C   0  0  0  0  0  0  0  0  0  0  0  0
  -18.0208   32.8851   -8.8276 C   0  0  0  0  0  0  0  0  0  0  0  0
  -18.9195   32.6010   -9.8582 C   0  0  0  0  0  0  0  0  0  0  0  0
  -19.1223   33.5348  -10.8662 C   0  0  0  0  0  0  0  0  0  0  0  0
  -19.9837   33.2627  -11.8552 F   0  0  0  0  0  0  0  0  0  0  0  0
  -18.4440   34.7473  -10.8639 C   0  0  0  0  0  0  0  0  0  0  0  0
  -17.5446   35.0315   -9.8336 C   0  0  0  0  0  0  0  0  0  0  0  0
  -17.7318   35.7898   -6.1157 C   0  0  0  0  0  0  0  0  0  0  0  0
  -17.9450   37.1520   -6.3588 C   0  0  0  0  0  0  0  0  0  0  0  0
  -19.1269   37.7652   -5.9385 C   0  0  0  0  0  0  0  0  0  0  0  0
  -20.1027   37.0204   -5.2772 C   0  0  0  0  0  0  0  0  0  0  0  0
  -19.8995   35.6623   -5.0357 C   0  0  0  0  0  0  0  0  0  0  0  0
  -18.7179   35.0474   -5.4546 C   0  0  0  0  0  0  0  0  0  0  0  0
  -11.0926   32.8418   -6.8972 O   0  0  0  0  0  0  0  0  0  0  0  0
  -12.1615   33.3375   -7.2096 C   0  0  0  0  0  0  0  0  0  0  0  0
  -12.6740   33.1875   -8.4428 O   0  0  0  0  0  0  0  0  0  0  0  0
  -13.4977   33.5785   -8.6585 H   0  0  0  0  0  0  0  0  0  0  0  0
 24 25  2  0
 25 26  1  0
 25  1  1  0
  1  2  2  0
  2  3  1  0
  3  4  2  0
  4  5  1  0
  5  6  1  0
  6 18  1  0
 18 19  2  0
 19 20  1  0
 20 21  2  0
 21 22  1  0
 22 23  2  0
  6  7  2  0
  7 11  1  0
 11 12  2  0
 12 13  1  0
 13 14  2  0
 14 15  1  0
 14 16  1  0
 16 17  2  0
  7  8  1  0
  8  9  1  0
  9  1  1  0
  9  5  2  0
 23 18  1  0
 17 11  1  0
 26 27  1  0
  8 10  1  0
M  END
> <minimizedAffinity>
-6.34415

> <CNNscore>
0.3767520785

> <CNNaffinity>
4.6372370720

> <CNN_VS>
1.7470886707

> <CNNaffinity_variance>
1.4736819267

$$$$



 27 30  0  0  0  0  0  0  0  0999 V2000
  -21.7821   39.4466   -3.8092 C   0  0  0  0  0  0  0  0  0  0  0  0
  -22.7546   40.1591   -3.0912 C   0  0  0  0  0  0  0  0  0  0  0  0
  -22.7213   40.2102   -1.6988 C   0  0  0  0  0  0  0  0  0  0  0  0
  -21.7161   39.5472   -0.9850 C   0  0  0  0  0  0  0  0  0  0  0  0
  -20.7288   38.8158   -1.6800 C   0  0  0  0  0  0  0  0  0  0  0  0
  -19.5886   38.0432   -1.2833 C   0  0  0  0  0  0  0  0  0  0  0  0
  -18.9714   37.5657   -2.4357 C   0  0  0  0  0  0  0  0  0  0  0  0
  -19.7164   38.0296   -3.4974 N   0  0  0  0  0  0  0  0  0  0  0  0
  -20.7827   38.7884   -3.0710 C   0  0  0  0  0  0  0  0  0  0  0  0
  -19.5119   37.8421   -4.4420 H   0  0  0  0  0  0  0  0  0  0  0  0
  -17.8009   36.7118   -2.6489 C   0  0  0  0  0  0  0  0  0  0  0  0
  -17.7313   35.4368   -2.0688 C   0  0  0  0  0  0  0  0  0  0  0  0
  -16.6149   34.6235   -2.2754 C   0  0  0  0  0  0  0  0  0  0  0  0
  -15.5689   35.0844   -3.0644 C   0  0  0  0  0  0  0  0  0  0  0  0
  -14.4977   34.3050   -3.2625 F   0  0  0  0  0  0  0  0  0  0  0  0
  -15.6173   36.3429   -3.6509 C   0  0  0  0  0  0  0  0  0  0  0  0
  -16.7333   37.1570   -3.4440 C   0  0  0  0  0  0  0  0  0  0  0  0
  -19.1127   37.7855    0.0679 C   0  0  0  0  0  0  0  0  0  0  0  0
  -18.3304   36.6583    0.3465 C   0  0  0  0  0  0  0  0  0  0  0  0
  -17.8767   36.4203    1.6453 C   0  0  0  0  0  0  0  0  0  0  0  0
  -18.1987   37.3085    2.6709 C   0  0  0  0  0  0  0  0  0  0  0  0
  -18.9735   38.4356    2.4002 C   0  0  0  0  0  0  0  0  0  0  0  0
  -19.4287   38.6751    1.1020 C   0  0  0  0  0  0  0  0  0  0  0  0
  -21.9532   40.3081   -6.0429 O   0  0  0  0  0  0  0  0  0  0  0  0
  -21.7697   39.3701   -5.2865 C   0  0  0  0  0  0  0  0  0  0  0  0
  -21.5299   38.1305   -5.7465 O   0  0  0  0  0  0  0  0  0  0  0  0
  -21.3920   37.4258   -5.1445 H   0  0  0  0  0  0  0  0  0  0  0  0
 24 25  2  0
 25 26  1  0
 25  1  1  0
  1  2  2  0
  2  3  1  0
  3  4  2  0
  4  5  1  0
  5  6  1  0
  6 18  1  0
 18 19  2  0
 19 20  1  0
 20 21  2  0
 21 22  1  0
 22 23  2  0
  6  7  2  0
  7 11  1  0
 11 12  2  0
 12 13  1  0
 13 14  2  0
 14 15  1  0
 14 16  1  0
 16 17  2  0
  7  8  1  0
  8  9  1  0
  9  1  1  0
  9  5  2  0
 23 18  1  0
 17 11  1  0
 26 27  1  0
  8 10  1  0
M  END
> <minimizedAffinity>
-10.02574

> <CNNscore>
0.3649170101

> <CNNaffinity>
5.8179669380

> <CNN_VS>
2.1230750084

> <CNNaffinity_variance>
0.2055650949

$$$$
