


 26 29  0  0  0  0  0  0  0  0999 V2000
    5.6802   11.5081   43.6585 C   0  0  0  0  0  0  0  0  0  0  0  0
    5.2368   11.4838   42.3359 C   0  0  0  0  0  0  0  0  0  0  0  0
    4.5358   12.5641   41.7434 C   0  0  0  0  0  0  0  0  0  0  0  0
    4.0806   12.5496   40.3745 C   0  0  0  0  0  0  0  0  0  0  0  0
    3.3952   13.7059   39.9268 C   0  0  0  0  0  0  0  0  0  0  0  0
    2.7736   14.1956   38.7344 C   0  0  0  0  0  0  0  0  0  0  0  0
    2.6542   13.5458   37.4050 C   0  0  0  0  0  0  0  0  0  0  0  0
    2.2475   15.4200   38.9034 N   0  0  0  0  0  0  0  0  0  0  0  0
    2.5438   15.7164   40.1796 N   0  0  0  0  0  0  0  0  0  0  0  0
    3.2213   14.7320   40.8312 C   0  0  0  0  0  0  0  0  0  0  0  0
    3.6245   14.7843   42.1031 N   0  0  0  0  0  0  0  0  0  0  0  0
    4.2787   13.7105   42.5524 C   0  0  0  0  0  0  0  0  0  0  0  0
    4.7195   13.7403   43.8844 C   0  0  0  0  0  0  0  0  0  0  0  0
    4.4519   14.9534   44.7505 C   0  0  0  0  0  0  0  0  0  0  0  0
    5.4167   12.6434   44.4291 C   0  0  0  0  0  0  0  0  0  0  0  0
    5.9638   12.6885   46.0819 Cl  0  0  0  0  0  0  0  0  0  0  0  0
    2.2937   16.5683   40.6051 H   0  0  0  0  0  0  0  0  0  0  0  0
    7.7039   10.2354   43.8692 C   0  0  0  0  0  0  0  0  0  0  0  0
    6.3631   10.4872   44.2661 O   0  0  0  0  0  0  0  0  0  0  0  0
    4.3027   11.3735   39.4396 C   0  0  0  0  0  0  0  0  0  0  0  0
    3.4093   10.2403   39.7185 N   0  0  0  0  0  0  0  0  0  0  0  0
    2.1260   10.2937   38.9859 C   0  0  0  0  0  0  0  0  0  0  0  0
    2.2340    9.9292   37.4955 C   0  0  0  0  0  0  0  0  0  0  0  0
    2.8559    8.6532   37.3069 O   0  0  0  0  0  0  0  0  0  0  0  0
    4.1470    8.6159   37.9246 C   0  0  0  0  0  0  0  0  0  0  0  0
    4.0584    8.9439   39.4239 C   0  0  0  0  0  0  0  0  0  0  0  0
 18 19  1  0
 19  1  1  0
  1  2  2  0
  2  3  1  0
  3  4  2  0
  4 20  1  0
 20 21  1  0
 21 22  1  0
 22 23  1  0
 23 24  1  0
 24 25  1  0
 25 26  1  0
  4  5  1  0
  5  6  1  0
  6  7  1  0
  6  8  2  0
  8  9  1  0
  9 10  1  0
 10 11  1  0
 11 12  2  0
 12 13  1  0
 13 14  1  0
 13 15  2  0
 15 16  1  0
 15  1  1  0
 12  3  1  0
 26 21  1  0
 10  5  2  0
  9 17  1  0
M  END
> <minimizedAffinity>
-6.95523

> <CNNscore>
0.5751172304

> <CNNaffinity>
6.9248309135

> <CNN_VS>
3.9825894833

> <CNNaffinity_variance>
0.0487428047

$$$$



 26 29  0  0  0  0  0  0  0  0999 V2000
    4.5864   13.6031   44.0587 C   0  0  0  0  0  0  0  0  0  0  0  0
    5.5864   12.6578   43.8281 C   0  0  0  0  0  0  0  0  0  0  0  0
    6.0677   11.7900   44.8404 C   0  0  0  0  0  0  0  0  0  0  0  0
    7.0960   10.8052   44.6080 C   0  0  0  0  0  0  0  0  0  0  0  0
    7.4695   10.0108   45.7201 C   0  0  0  0  0  0  0  0  0  0  0  0
    8.3757    8.9467   46.0279 C   0  0  0  0  0  0  0  0  0  0  0  0
    9.3305    8.2414   45.1366 C   0  0  0  0  0  0  0  0  0  0  0  0
    8.3019    8.5754   47.3167 N   0  0  0  0  0  0  0  0  0  0  0  0
    7.3501    9.3778   47.8215 N   0  0  0  0  0  0  0  0  0  0  0  0
    6.8267   10.2492   46.9163 C   0  0  0  0  0  0  0  0  0  0  0  0
    5.8740   11.1489   47.1728 N   0  0  0  0  0  0  0  0  0  0  0  0
    5.4967   11.9093   46.1421 C   0  0  0  0  0  0  0  0  0  0  0  0
    4.4926   12.8599   46.3815 C   0  0  0  0  0  0  0  0  0  0  0  0
    3.8799   12.9931   47.7600 C   0  0  0  0  0  0  0  0  0  0  0  0
    4.0428   13.6987   45.3422 C   0  0  0  0  0  0  0  0  0  0  0  0
    2.7939   14.8739   45.6456 Cl  0  0  0  0  0  0  0  0  0  0  0  0
    7.0577    9.3392   48.7607 H   0  0  0  0  0  0  0  0  0  0  0  0
    5.0102   15.1614   42.2834 C   0  0  0  0  0  0  0  0  0  0  0  0
    4.0921   14.4566   43.1074 O   0  0  0  0  0  0  0  0  0  0  0  0
    7.7657   10.6085   43.2591 C   0  0  0  0  0  0  0  0  0  0  0  0
    7.4374    9.3181   42.6367 N   0  0  0  0  0  0  0  0  0  0  0  0
    6.0801    9.2617   42.0528 C   0  0  0  0  0  0  0  0  0  0  0  0
    5.9335   10.0181   40.7215 C   0  0  0  0  0  0  0  0  0  0  0  0
    6.9020    9.5868   39.7589 O   0  0  0  0  0  0  0  0  0  0  0  0
    8.2316    9.7295   40.2701 C   0  0  0  0  0  0  0  0  0  0  0  0
    8.4110    8.9526   41.5844 C   0  0  0  0  0  0  0  0  0  0  0  0
 18 19  1  0
 19  1  1  0
  1  2  2  0
  2  3  1  0
  3  4  2  0
  4 20  1  0
 20 21  1  0
 21 22  1  0
 22 23  1  0
 23 24  1  0
 24 25  1  0
 25 26  1  0
  4  5  1  0
  5  6  1  0
  6  7  1  0
  6  8  2  0
  8  9  1  0
  9 10  1  0
 10 11  1  0
 11 12  2  0
 12 13  1  0
 13 14  1  0
 13 15  2  0
 15 16  1  0
 15  1  1  0
 12  3  1  0
 26 21  1  0
 10  5  2  0
  9 17  1  0
M  END
> <minimizedAffinity>
-7.20422

> <CNNscore>
0.4423901439

> <CNNaffinity>
7.0560173988

> <CNN_VS>
3.1215126514

> <CNNaffinity_variance>
0.0887595341

$$$$



 26 29  0  0  0  0  0  0  0  0999 V2000
    4.5073   12.9637   43.5305 C   0  0  0  0  0  0  0  0  0  0  0  0
    5.3701   11.8686   43.4785 C   0  0  0  0  0  0  0  0  0  0  0  0
    5.9508   11.2957   44.6378 C   0  0  0  0  0  0  0  0  0  0  0  0
    6.8379   10.1589   44.5929 C   0  0  0  0  0  0  0  0  0  0  0  0
    7.3366    9.7001   45.8372 C   0  0  0  0  0  0  0  0  0  0  0  0
    8.1931    8.6701   46.3406 C   0  0  0  0  0  0  0  0  0  0  0  0
    8.9142    7.6052   45.5992 C   0  0  0  0  0  0  0  0  0  0  0  0
    8.3188    8.7239   47.6769 N   0  0  0  0  0  0  0  0  0  0  0  0
    7.5402    9.7618   48.0247 N   0  0  0  0  0  0  0  0  0  0  0  0
    6.9375   10.3764   46.9705 C   0  0  0  0  0  0  0  0  0  0  0  0
    6.1218   11.4303   47.0547 N   0  0  0  0  0  0  0  0  0  0  0  0
    5.6311   11.8823   45.8981 C   0  0  0  0  0  0  0  0  0  0  0  0
    4.7662   12.9858   45.9573 C   0  0  0  0  0  0  0  0  0  0  0  0
    4.4204   13.6146   47.2908 C   0  0  0  0  0  0  0  0  0  0  0  0
    4.2092   13.5189   44.7776 C   0  0  0  0  0  0  0  0  0  0  0  0
    3.1339   14.8863   44.8587 Cl  0  0  0  0  0  0  0  0  0  0  0  0
    7.4167   10.0516   48.9575 H   0  0  0  0  0  0  0  0  0  0  0  0
    4.4544   13.2549   41.1489 C   0  0  0  0  0  0  0  0  0  0  0  0
    3.9234   13.5435   42.4347 O   0  0  0  0  0  0  0  0  0  0  0  0
    7.2397    9.4716   43.2995 C   0  0  0  0  0  0  0  0  0  0  0  0
    8.1597   10.2757   42.4826 N   0  0  0  0  0  0  0  0  0  0  0  0
    9.5678   10.2157   42.9298 C   0  0  0  0  0  0  0  0  0  0  0  0
   10.2885    8.9047   42.5723 C   0  0  0  0  0  0  0  0  0  0  0  0
   10.2041    8.6199   41.1715 O   0  0  0  0  0  0  0  0  0  0  0  0
    8.8401    8.5734   40.7391 C   0  0  0  0  0  0  0  0  0  0  0  0
    8.1087    9.8880   41.0558 C   0  0  0  0  0  0  0  0  0  0  0  0
 18 19  1  0
 19  1  1  0
  1  2  2  0
  2  3  1  0
  3  4  2  0
  4 20  1  0
 20 21  1  0
 21 22  1  0
 22 23  1  0
 23 24  1  0
 24 25  1  0
 25 26  1  0
  4  5  1  0
  5  6  1  0
  6  7  1  0
  6  8  2  0
  8  9  1  0
  9 10  1  0
 10 11  1  0
 11 12  2  0
 12 13  1  0
 13 14  1  0
 13 15  2  0
 15 16  1  0
 15  1  1  0
 12  3  1  0
 26 21  1  0
 10  5  2  0
  9 17  1  0
M  END
> <minimizedAffinity>
-8.86275

> <CNNscore>
0.3960267603

> <CNNaffinity>
6.8933329582

> <CNN_VS>
2.7299442291

> <CNNaffinity_variance>
0.1189818159

$$$$



 26 29  0  0  0  0  0  0  0  0999 V2000
    7.1202    9.2345   43.7471 C   0  0  0  0  0  0  0  0  0  0  0  0
    6.2073   10.2886   43.7013 C   0  0  0  0  0  0  0  0  0  0  0  0
    5.8796   11.0676   44.8394 C   0  0  0  0  0  0  0  0  0  0  0  0
    4.9424   12.1636   44.7985 C   0  0  0  0  0  0  0  0  0  0  0  0
    4.7208   12.8480   46.0191 C   0  0  0  0  0  0  0  0  0  0  0  0
    3.9467   13.9456   46.5134 C   0  0  0  0  0  0  0  0  0  0  0  0
    3.0132   14.8386   45.7822 C   0  0  0  0  0  0  0  0  0  0  0  0
    4.1380   14.1493   47.8273 N   0  0  0  0  0  0  0  0  0  0  0  0
    5.0345   13.2075   48.1645 N   0  0  0  0  0  0  0  0  0  0  0  0
    5.4103   12.4081   47.1290 C   0  0  0  0  0  0  0  0  0  0  0  0
    6.2825   11.4002   47.2092 N   0  0  0  0  0  0  0  0  0  0  0  0
    6.5164   10.7392   46.0728 C   0  0  0  0  0  0  0  0  0  0  0  0
    7.4334    9.6783   46.1264 C   0  0  0  0  0  0  0  0  0  0  0  0
    8.1150    9.3230   47.4313 C   0  0  0  0  0  0  0  0  0  0  0  0
    7.7310    8.9342   44.9672 C   0  0  0  0  0  0  0  0  0  0  0  0
    8.8726    7.6211   45.0402 Cl  0  0  0  0  0  0  0  0  0  0  0  0
    5.3877   13.1048   49.0778 H   0  0  0  0  0  0  0  0  0  0  0  0
    6.8893    8.7587   41.4061 C   0  0  0  0  0  0  0  0  0  0  0  0
    7.4660    8.4610   42.6700 O   0  0  0  0  0  0  0  0  0  0  0  0
    4.2125   12.5834   43.5345 C   0  0  0  0  0  0  0  0  0  0  0  0
    5.0847   13.2608   42.5647 N   0  0  0  0  0  0  0  0  0  0  0  0
    5.1910   12.5644   41.2646 C   0  0  0  0  0  0  0  0  0  0  0  0
    3.9545   12.7186   40.3628 C   0  0  0  0  0  0  0  0  0  0  0  0
    3.6179   14.0952   40.1578 O   0  0  0  0  0  0  0  0  0  0  0  0
    3.4110   14.7638   41.4068 C   0  0  0  0  0  0  0  0  0  0  0  0
    4.6485   14.6517   42.3120 C   0  0  0  0  0  0  0  0  0  0  0  0
 18 19  1  0
 19  1  1  0
  1  2  2  0
  2  3  1  0
  3  4  2  0
  4 20  1  0
 20 21  1  0
 21 22  1  0
 22 23  1  0
 23 24  1  0
 24 25  1  0
 25 26  1  0
  4  5  1  0
  5  6  1  0
  6  7  1  0
  6  8  2  0
  8  9  1  0
  9 10  1  0
 10 11  1  0
 11 12  2  0
 12 13  1  0
 13 14  1  0
 13 15  2  0
 15 16  1  0
 15  1  1  0
 12  3  1  0
 26 21  1  0
 10  5  2  0
  9 17  1  0
M  END
> <minimizedAffinity>
-8.10729

> <CNNscore>
0.3740870357

> <CNNaffinity>
7.4487891197

> <CNN_VS>
2.7864954472

> <CNNaffinity_variance>
0.0084777009

$$$$



 26 29  0  0  0  0  0  0  0  0999 V2000
    4.4418   13.0568   43.7272 C   0  0  0  0  0  0  0  0  0  0  0  0
    5.1110   11.9144   43.2874 C   0  0  0  0  0  0  0  0  0  0  0  0
    5.8371   11.0678   44.1623 C   0  0  0  0  0  0  0  0  0  0  0  0
    6.5255    9.8810   43.7164 C   0  0  0  0  0  0  0  0  0  0  0  0
    7.2062    9.1369   44.7115 C   0  0  0  0  0  0  0  0  0  0  0  0
    7.9961    7.9480   44.8158 C   0  0  0  0  0  0  0  0  0  0  0  0
    8.3867    6.9862   43.7547 C   0  0  0  0  0  0  0  0  0  0  0  0
    8.4078    7.7221   46.0744 N   0  0  0  0  0  0  0  0  0  0  0  0
    7.8744    8.7416   46.7677 N   0  0  0  0  0  0  0  0  0  0  0  0
    7.1552    9.6100   46.0055 C   0  0  0  0  0  0  0  0  0  0  0  0
    6.5326   10.7012   46.4582 N   0  0  0  0  0  0  0  0  0  0  0  0
    5.8771   11.4205   45.5438 C   0  0  0  0  0  0  0  0  0  0  0  0
    5.2085   12.5698   45.9925 C   0  0  0  0  0  0  0  0  0  0  0  0
    5.2446   12.9516   47.4575 C   0  0  0  0  0  0  0  0  0  0  0  0
    4.4954   13.3793   45.0856 C   0  0  0  0  0  0  0  0  0  0  0  0
    3.6652   14.8024   45.6498 Cl  0  0  0  0  0  0  0  0  0  0  0  0
    7.9930    8.8507   47.7389 H   0  0  0  0  0  0  0  0  0  0  0  0
    4.1238   14.0313   41.5572 C   0  0  0  0  0  0  0  0  0  0  0  0
    3.7270   13.8978   42.9149 O   0  0  0  0  0  0  0  0  0  0  0  0
    6.5438    9.4287   42.2667 C   0  0  0  0  0  0  0  0  0  0  0  0
    7.4508   10.2243   41.4273 N   0  0  0  0  0  0  0  0  0  0  0  0
    8.7949    9.6295   41.2654 C   0  0  0  0  0  0  0  0  0  0  0  0
    8.8435    8.4322   40.3011 C   0  0  0  0  0  0  0  0  0  0  0  0
    8.2933    8.7617   39.0208 O   0  0  0  0  0  0  0  0  0  0  0  0
    6.9519    9.2455   39.1484 C   0  0  0  0  0  0  0  0  0  0  0  0
    6.8844   10.4650   40.0820 C   0  0  0  0  0  0  0  0  0  0  0  0
 18 19  1  0
 19  1  1  0
  1  2  2  0
  2  3  1  0
  3  4  2  0
  4 20  1  0
 20 21  1  0
 21 22  1  0
 22 23  1  0
 23 24  1  0
 24 25  1  0
 25 26  1  0
  4  5  1  0
  5  6  1  0
  6  7  1  0
  6  8  2  0
  8  9  1  0
  9 10  1  0
 10 11  1  0
 11 12  2  0
 12 13  1  0
 13 14  1  0
 13 15  2  0
 15 16  1  0
 15  1  1  0
 12  3  1  0
 26 21  1  0
 10  5  2  0
  9 17  1  0
M  END
> <minimizedAffinity>
-7.62170

> <CNNscore>
0.3203388155

> <CNNaffinity>
6.8546948433

> <CNN_VS>
2.1958248615

> <CNNaffinity_variance>
0.0079984702

$$$$



 26 29  0  0  0  0  0  0  0  0999 V2000
    7.3403    8.9687   41.0678 C   0  0  0  0  0  0  0  0  0  0  0  0
    6.9676   10.0279   41.8959 C   0  0  0  0  0  0  0  0  0  0  0  0
    6.9291    9.9183   43.3086 C   0  0  0  0  0  0  0  0  0  0  0  0
    6.5520   11.0110   44.1719 C   0  0  0  0  0  0  0  0  0  0  0  0
    6.5636   10.7464   45.5637 C   0  0  0  0  0  0  0  0  0  0  0  0
    6.2995   11.4308   46.7925 C   0  0  0  0  0  0  0  0  0  0  0  0
    5.8842   12.8393   47.0103 C   0  0  0  0  0  0  0  0  0  0  0  0
    6.4734   10.6370   47.8621 N   0  0  0  0  0  0  0  0  0  0  0  0
    6.8601    9.4674   47.3263 N   0  0  0  0  0  0  0  0  0  0  0  0
    6.9267    9.4789   45.9670 C   0  0  0  0  0  0  0  0  0  0  0  0
    7.2801    8.4425   45.2027 N   0  0  0  0  0  0  0  0  0  0  0  0
    7.2840    8.6631   43.8858 C   0  0  0  0  0  0  0  0  0  0  0  0
    7.6571    7.5928   43.0585 C   0  0  0  0  0  0  0  0  0  0  0  0
    8.0363    6.2568   43.6624 C   0  0  0  0  0  0  0  0  0  0  0  0
    7.6846    7.7502   41.6583 C   0  0  0  0  0  0  0  0  0  0  0  0
    8.1519    6.4186   40.6378 Cl  0  0  0  0  0  0  0  0  0  0  0  0
    7.0758    8.6739   47.8678 H   0  0  0  0  0  0  0  0  0  0  0  0
    8.5266    9.6403   39.0926 C   0  0  0  0  0  0  0  0  0  0  0  0
    7.3936    9.0354   39.7001 O   0  0  0  0  0  0  0  0  0  0  0  0
    6.1538   12.3805   43.6498 C   0  0  0  0  0  0  0  0  0  0  0  0
    4.7160   12.4922   43.3660 N   0  0  0  0  0  0  0  0  0  0  0  0
    3.9879   13.3800   44.2976 C   0  0  0  0  0  0  0  0  0  0  0  0
    4.2218   14.8804   44.0527 C   0  0  0  0  0  0  0  0  0  0  0  0
    3.9348   15.2461   42.6983 O   0  0  0  0  0  0  0  0  0  0  0  0
    4.7080   14.4644   41.7814 C   0  0  0  0  0  0  0  0  0  0  0  0
    4.4636   12.9604   41.9855 C   0  0  0  0  0  0  0  0  0  0  0  0
 18 19  1  0
 19  1  1  0
  1  2  2  0
  2  3  1  0
  3  4  2  0
  4 20  1  0
 20 21  1  0
 21 22  1  0
 22 23  1  0
 23 24  1  0
 24 25  1  0
 25 26  1  0
  4  5  1  0
  5  6  1  0
  6  7  1  0
  6  8  2  0
  8  9  1  0
  9 10  1  0
 10 11  1  0
 11 12  2  0
 12 13  1  0
 13 14  1  0
 13 15  2  0
 15 16  1  0
 15  1  1  0
 12  3  1  0
 26 21  1  0
 10  5  2  0
  9 17  1  0
M  END
> <minimizedAffinity>
-7.14471

> <CNNscore>
0.2119407505

> <CNNaffinity>
6.5960249901

> <CNN_VS>
1.3979665041

> <CNNaffinity_variance>
0.0725625828

$$$$



 26 29  0  0  0  0  0  0  0  0999 V2000
    4.7151   12.8869   45.6437 C   0  0  0  0  0  0  0  0  0  0  0  0
    5.2997   11.7231   45.1433 C   0  0  0  0  0  0  0  0  0  0  0  0
    5.3687   11.4360   43.7569 C   0  0  0  0  0  0  0  0  0  0  0  0
    5.9779   10.2385   43.2314 C   0  0  0  0  0  0  0  0  0  0  0  0
    5.9705   10.0950   41.8219 C   0  0  0  0  0  0  0  0  0  0  0  0
    6.4169    9.1632   40.8317 C   0  0  0  0  0  0  0  0  0  0  0  0
    7.1423    7.8805   41.0112 C   0  0  0  0  0  0  0  0  0  0  0  0
    6.1118    9.5627   39.5860 N   0  0  0  0  0  0  0  0  0  0  0  0
    5.4953   10.7410   39.7755 N   0  0  0  0  0  0  0  0  0  0  0  0
    5.3836   11.1006   41.0835 C   0  0  0  0  0  0  0  0  0  0  0  0
    4.8093   12.2206   41.5296 N   0  0  0  0  0  0  0  0  0  0  0  0
    4.8059   12.3866   42.8546 C   0  0  0  0  0  0  0  0  0  0  0  0
    4.2139   13.5580   43.3513 C   0  0  0  0  0  0  0  0  0  0  0  0
    3.6147   14.5734   42.4009 C   0  0  0  0  0  0  0  0  0  0  0  0
    4.1724   13.8025   44.7386 C   0  0  0  0  0  0  0  0  0  0  0  0
    3.4391   15.2599   45.3480 Cl  0  0  0  0  0  0  0  0  0  0  0  0
    5.1551   11.2942   39.0356 H   0  0  0  0  0  0  0  0  0  0  0  0
    3.6016   12.6073   47.7512 C   0  0  0  0  0  0  0  0  0  0  0  0
    4.6319   13.2023   46.9747 O   0  0  0  0  0  0  0  0  0  0  0  0
    6.5974    9.1682   44.1130 C   0  0  0  0  0  0  0  0  0  0  0  0
    8.0149    9.4176   44.4107 N   0  0  0  0  0  0  0  0  0  0  0  0
    8.2541    9.9922   45.7520 C   0  0  0  0  0  0  0  0  0  0  0  0
    8.1197    8.9825   46.9046 C   0  0  0  0  0  0  0  0  0  0  0  0
    8.9546    7.8366   46.7037 O   0  0  0  0  0  0  0  0  0  0  0  0
    8.6664    7.2055   45.4514 C   0  0  0  0  0  0  0  0  0  0  0  0
    8.8279    8.1885   44.2805 C   0  0  0  0  0  0  0  0  0  0  0  0
 18 19  1  0
 19  1  1  0
  1  2  2  0
  2  3  1  0
  3  4  2  0
  4 20  1  0
 20 21  1  0
 21 22  1  0
 22 23  1  0
 23 24  1  0
 24 25  1  0
 25 26  1  0
  4  5  1  0
  5  6  1  0
  6  7  1  0
  6  8  2  0
  8  9  1  0
  9 10  1  0
 10 11  1  0
 11 12  2  0
 12 13  1  0
 13 14  1  0
 13 15  2  0
 15 16  1  0
 15  1  1  0
 12  3  1  0
 26 21  1  0
 10  5  2  0
  9 17  1  0
M  END
> <minimizedAffinity>
-8.07163

> <CNNscore>
0.1938616335

> <CNNaffinity>
6.2735466957

> <CNN_VS>
1.2161999941

> <CNNaffinity_variance>
0.0563095026

$$$$



 26 29  0  0  0  0  0  0  0  0999 V2000
    4.6636   12.5016   43.1043 C   0  0  0  0  0  0  0  0  0  0  0  0
    4.9746   11.6345   42.0564 C   0  0  0  0  0  0  0  0  0  0  0  0
    5.7568   10.4661   42.2360 C   0  0  0  0  0  0  0  0  0  0  0  0
    6.0764    9.5608   41.1591 C   0  0  0  0  0  0  0  0  0  0  0  0
    6.8670    8.4348   41.4972 C   0  0  0  0  0  0  0  0  0  0  0  0
    7.4353    7.2869   40.8588 C   0  0  0  0  0  0  0  0  0  0  0  0
    7.3416    6.8611   39.4398 C   0  0  0  0  0  0  0  0  0  0  0  0
    8.1352    6.5252   41.7158 N   0  0  0  0  0  0  0  0  0  0  0  0
    8.0018    7.1669   42.8884 N   0  0  0  0  0  0  0  0  0  0  0  0
    7.2613    8.3063   42.8121 C   0  0  0  0  0  0  0  0  0  0  0  0
    6.9890    9.1198   43.8354 N   0  0  0  0  0  0  0  0  0  0  0  0
    6.2404   10.1877   43.5487 C   0  0  0  0  0  0  0  0  0  0  0  0
    5.9337   11.0572   44.6067 C   0  0  0  0  0  0  0  0  0  0  0  0
    6.4420   10.7692   46.0038 C   0  0  0  0  0  0  0  0  0  0  0  0
    5.1485   12.2054   44.3807 C   0  0  0  0  0  0  0  0  0  0  0  0
    4.7689   13.2783   45.6990 Cl  0  0  0  0  0  0  0  0  0  0  0  0
    8.4031    6.8424   43.7268 H   0  0  0  0  0  0  0  0  0  0  0  0
    4.4379   14.7225   42.2232 C   0  0  0  0  0  0  0  0  0  0  0  0
    3.9087   13.6376   42.9726 O   0  0  0  0  0  0  0  0  0  0  0  0
    5.6115    9.7764   39.7294 C   0  0  0  0  0  0  0  0  0  0  0  0
    4.3808    9.0402   39.4076 N   0  0  0  0  0  0  0  0  0  0  0  0
    3.1448    9.8333   39.5797 C   0  0  0  0  0  0  0  0  0  0  0  0
    2.8979   10.8669   38.4677 C   0  0  0  0  0  0  0  0  0  0  0  0
    2.9183   10.2623   37.1698 O   0  0  0  0  0  0  0  0  0  0  0  0
    4.1526    9.5727   36.9449 C   0  0  0  0  0  0  0  0  0  0  0  0
    4.4036    8.5097   38.0267 C   0  0  0  0  0  0  0  0  0  0  0  0
 18 19  1  0
 19  1  1  0
  1  2  2  0
  2  3  1  0
  3  4  2  0
  4 20  1  0
 20 21  1  0
 21 22  1  0
 22 23  1  0
 23 24  1  0
 24 25  1  0
 25 26  1  0
  4  5  1  0
  5  6  1  0
  6  7  1  0
  6  8  2  0
  8  9  1  0
  9 10  1  0
 10 11  1  0
 11 12  2  0
 12 13  1  0
 13 14  1  0
 13 15  2  0
 15 16  1  0
 15  1  1  0
 12  3  1  0
 26 21  1  0
 10  5  2  0
  9 17  1  0
M  END
> <minimizedAffinity>
-6.20836

> <CNNscore>
0.1804241538

> <CNNaffinity>
6.2328333855

> <CNN_VS>
1.1245536804

> <CNNaffinity_variance>
0.0674499348

$$$$



 26 29  0  0  0  0  0  0  0  0999 V2000
    4.2626   13.6471   43.8107 C   0  0  0  0  0  0  0  0  0  0  0  0
    4.2920   13.2094   42.4862 C   0  0  0  0  0  0  0  0  0  0  0  0
    4.9072   11.9937   42.0951 C   0  0  0  0  0  0  0  0  0  0  0  0
    4.9353   11.5308   40.7289 C   0  0  0  0  0  0  0  0  0  0  0  0
    5.5871   10.2945   40.4966 C   0  0  0  0  0  0  0  0  0  0  0  0
    5.8828    9.4219   39.4015 C   0  0  0  0  0  0  0  0  0  0  0  0
    5.5309    9.5662   37.9666 C   0  0  0  0  0  0  0  0  0  0  0  0
    6.5724    8.3366   39.7905 N   0  0  0  0  0  0  0  0  0  0  0  0
    6.7002    8.5039   41.1172 N   0  0  0  0  0  0  0  0  0  0  0  0
    6.1357    9.6505   41.5853 C   0  0  0  0  0  0  0  0  0  0  0  0
    6.1328   10.0444   42.8612 N   0  0  0  0  0  0  0  0  0  0  0  0
    5.5206   11.2042   43.1124 C   0  0  0  0  0  0  0  0  0  0  0  0
    5.4972   11.6399   44.4461 C   0  0  0  0  0  0  0  0  0  0  0  0
    6.1449   10.8078   45.5330 C   0  0  0  0  0  0  0  0  0  0  0  0
    4.8695   12.8544   44.7882 C   0  0  0  0  0  0  0  0  0  0  0  0
    4.8412   13.3875   46.4459 Cl  0  0  0  0  0  0  0  0  0  0  0  0
    7.1605    7.8559   41.6982 H   0  0  0  0  0  0  0  0  0  0  0  0
    4.5077   15.9283   44.5147 C   0  0  0  0  0  0  0  0  0  0  0  0
    3.6758   14.8125   44.2293 O   0  0  0  0  0  0  0  0  0  0  0  0
    4.3147   12.3044   39.5787 C   0  0  0  0  0  0  0  0  0  0  0  0
    2.8458   12.2530   39.5772 N   0  0  0  0  0  0  0  0  0  0  0  0
    2.2025   13.4942   39.0957 C   0  0  0  0  0  0  0  0  0  0  0  0
    2.2649   13.6873   37.5710 C   0  0  0  0  0  0  0  0  0  0  0  0
    1.7349   12.5551   36.8726 O   0  0  0  0  0  0  0  0  0  0  0  0
    2.4157   11.3541   37.2517 C   0  0  0  0  0  0  0  0  0  0  0  0
    2.3368   11.1228   38.7695 C   0  0  0  0  0  0  0  0  0  0  0  0
 18 19  1  0
 19  1  1  0
  1  2  2  0
  2  3  1  0
  3  4  2  0
  4 20  1  0
 20 21  1  0
 21 22  1  0
 22 23  1  0
 23 24  1  0
 24 25  1  0
 25 26  1  0
  4  5  1  0
  5  6  1  0
  6  7  1  0
  6  8  2  0
  8  9  1  0
  9 10  1  0
 10 11  1  0
 11 12  2  0
 12 13  1  0
 13 14  1  0
 13 15  2  0
 15 16  1  0
 15  1  1  0
 12  3  1  0
 26 21  1  0
 10  5  2  0
  9 17  1  0
M  END
> <minimizedAffinity>
-5.57087

> <CNNscore>
0.1728101224

> <CNNaffinity>
6.2944045067

> <CNN_VS>
1.0877368450

> <CNNaffinity_variance>
0.0513953082

$$$$
