


 16 17  0  0  0  0  0  0  0  0999 V2000
   13.8861    9.8887   -3.1240 C   0  0  0  0  0  0  0  0  0  0  0  0
   15.2835    9.9304   -3.2119 C   0  0  0  0  0  0  0  0  0  0  0  0
   16.0887   10.1267   -2.0796 C   0  0  0  0  0  0  0  0  0  0  0  0
   15.4630   10.2831   -0.8311 C   0  0  0  0  0  0  0  0  0  0  0  0
   15.9007   10.4960    0.5125 C   0  0  0  0  0  0  0  0  0  0  0  0
   14.7485   10.5702    1.2703 C   0  0  0  0  0  0  0  0  0  0  0  0
   13.6447   10.4143    0.4971 O   0  0  0  0  0  0  0  0  0  0  0  0
   14.0754   10.2395   -0.7821 C   0  0  0  0  0  0  0  0  0  0  0  0
   13.2486   10.0454   -1.8894 C   0  0  0  0  0  0  0  0  0  0  0  0
   11.8691    9.3657   -4.2731 C   0  0  0  0  0  0  0  0  0  0  0  0
   13.2536    9.6886   -4.3237 O   0  0  0  0  0  0  0  0  0  0  0  0
   17.3007   10.6108    1.0013 C   0  0  0  0  0  0  0  0  0  0  0  0
   17.7588   12.0439    1.0550 C   0  0  0  0  0  0  0  0  0  0  0  0
   17.8679   12.7300    2.0591 O   0  0  0  0  0  0  0  0  0  0  0  0
   18.0729   12.5471   -0.1561 O   0  0  0  0  0  0  0  0  0  0  0  0
   17.9863   12.0140   -0.9218 H   0  0  0  0  0  0  0  0  0  0  0  0
 10 11  1  0
 11  1  1  0
  1  2  2  0
  2  3  1  0
  3  4  2  0
  4  5  1  0
  5 12  1  0
 12 13  1  0
 13 14  2  0
 13 15  1  0
  5  6  2  0
  6  7  1  0
  7  8  1  0
  8  9  2  0
  9  1  1  0
  8  4  1  0
 15 16  1  0
M  END
> <minimizedAffinity>
-6.94814

> <CNNscore>
0.8608132005

> <CNNaffinity>
4.2646346092

> <CNN_VS>
3.6710536480

> <CNNaffinity_variance>
0.0974140763

$$$$



 16 17  0  0  0  0  0  0  0  0999 V2000
   20.3497    4.3998    3.9617 C   0  0  0  0  0  0  0  0  0  0  0  0
   21.4953    3.6068    4.1050 C   0  0  0  0  0  0  0  0  0  0  0  0
   22.7335    4.1576    4.4689 C   0  0  0  0  0  0  0  0  0  0  0  0
   22.8109    5.5427    4.6932 C   0  0  0  0  0  0  0  0  0  0  0  0
   23.8398    6.4626    5.0640 C   0  0  0  0  0  0  0  0  0  0  0  0
   23.2328    7.7025    5.1007 C   0  0  0  0  0  0  0  0  0  0  0  0
   21.9160    7.6110    4.7874 O   0  0  0  0  0  0  0  0  0  0  0  0
   21.6557    6.2985    4.5386 C   0  0  0  0  0  0  0  0  0  0  0  0
   20.4112    5.7797    4.1787 C   0  0  0  0  0  0  0  0  0  0  0  0
   19.4172    2.5464    2.7965 C   0  0  0  0  0  0  0  0  0  0  0  0
   19.2252    3.7026    3.6026 O   0  0  0  0  0  0  0  0  0  0  0  0
   25.2660    6.1569    5.3549 C   0  0  0  0  0  0  0  0  0  0  0  0
   26.0412    5.8571    4.0996 C   0  0  0  0  0  0  0  0  0  0  0  0
   25.5907    5.8144    2.9656 O   0  0  0  0  0  0  0  0  0  0  0  0
   27.3527    5.6376    4.3246 O   0  0  0  0  0  0  0  0  0  0  0  0
   27.6904    5.6722    5.1979 H   0  0  0  0  0  0  0  0  0  0  0  0
 10 11  1  0
 11  1  1  0
  1  2  2  0
  2  3  1  0
  3  4  2  0
  4  5  1  0
  5 12  1  0
 12 13  1  0
 13 14  2  0
 13 15  1  0
  5  6  2  0
  6  7  1  0
  7  8  1  0
  8  9  2  0
  9  1  1  0
  8  4  1  0
 15 16  1  0
M  END
> <minimizedAffinity>
-5.92765

> <CNNscore>
0.6071547866

> <CNNaffinity>
3.5617649555

> <CNN_VS>
2.1625425816

> <CNNaffinity_variance>
0.4977128506

$$$$



 16 17  0  0  0  0  0  0  0  0999 V2000
   13.8980   10.0693   -2.3869 C   0  0  0  0  0  0  0  0  0  0  0  0
   15.2424    9.8966   -2.7401 C   0  0  0  0  0  0  0  0  0  0  0  0
   16.2734   10.0016   -1.7941 C   0  0  0  0  0  0  0  0  0  0  0  0
   15.9332   10.2867   -0.4608 C   0  0  0  0  0  0  0  0  0  0  0  0
   16.6514   10.4696    0.7611 C   0  0  0  0  0  0  0  0  0  0  0  0
   15.6926   10.7391    1.7178 C   0  0  0  0  0  0  0  0  0  0  0  0
   14.4480   10.7296    1.1780 O   0  0  0  0  0  0  0  0  0  0  0  0
   14.5904   10.4549   -0.1474 C   0  0  0  0  0  0  0  0  0  0  0  0
   13.5437   10.3562   -1.0651 C   0  0  0  0  0  0  0  0  0  0  0  0
   13.5644    9.5035   -4.6741 C   0  0  0  0  0  0  0  0  0  0  0  0
   13.0208    9.9327   -3.4316 O   0  0  0  0  0  0  0  0  0  0  0  0
   18.1218   10.3854    0.9685 C   0  0  0  0  0  0  0  0  0  0  0  0
   18.8392   11.5679    0.3739 C   0  0  0  0  0  0  0  0  0  0  0  0
   20.0295   11.6321    0.1095 O   0  0  0  0  0  0  0  0  0  0  0  0
   18.0247   12.6135    0.1250 O   0  0  0  0  0  0  0  0  0  0  0  0
   17.1124   12.5561    0.3309 H   0  0  0  0  0  0  0  0  0  0  0  0
 10 11  1  0
 11  1  1  0
  1  2  2  0
  2  3  1  0
  3  4  2  0
  4  5  1  0
  5 12  1  0
 12 13  1  0
 13 14  2  0
 13 15  1  0
  5  6  2  0
  6  7  1  0
  7  8  1  0
  8  9  2  0
  9  1  1  0
  8  4  1  0
 15 16  1  0
M  END
> <minimizedAffinity>
-7.18395

> <CNNscore>
0.6011296511

> <CNNaffinity>
3.9209334850

> <CNN_VS>
2.3569893837

> <CNNaffinity_variance>
0.2069760710

$$$$



 16 17  0  0  0  0  0  0  0  0999 V2000
   16.2522   19.6606   -6.7800 C   0  0  0  0  0  0  0  0  0  0  0  0
   16.7660   20.5474   -5.8252 C   0  0  0  0  0  0  0  0  0  0  0  0
   18.1449   20.6629   -5.5918 C   0  0  0  0  0  0  0  0  0  0  0  0
   19.0213   19.8625   -6.3440 C   0  0  0  0  0  0  0  0  0  0  0  0
   20.4373   19.6819   -6.4122 C   0  0  0  0  0  0  0  0  0  0  0  0
   20.6417   18.7152   -7.3771 C   0  0  0  0  0  0  0  0  0  0  0  0
   19.4644   18.2966   -7.9058 O   0  0  0  0  0  0  0  0  0  0  0  0
   18.4764   18.9922   -7.2796 C   0  0  0  0  0  0  0  0  0  0  0  0
   17.1112   18.8555   -7.5344 C   0  0  0  0  0  0  0  0  0  0  0  0
   14.1980   20.6866   -6.1554 C   0  0  0  0  0  0  0  0  0  0  0  0
   14.8850   19.6740   -6.8806 O   0  0  0  0  0  0  0  0  0  0  0  0
   21.4792   20.3855   -5.6175 C   0  0  0  0  0  0  0  0  0  0  0  0
   21.4745   19.9481   -4.1770 C   0  0  0  0  0  0  0  0  0  0  0  0
   21.3750   18.8010   -3.7710 O   0  0  0  0  0  0  0  0  0  0  0  0
   21.6093   20.9725   -3.3102 O   0  0  0  0  0  0  0  0  0  0  0  0
   21.6851   21.8499   -3.6300 H   0  0  0  0  0  0  0  0  0  0  0  0
 10 11  1  0
 11  1  1  0
  1  2  2  0
  2  3  1  0
  3  4  2  0
  4  5  1  0
  5 12  1  0
 12 13  1  0
 13 14  2  0
 13 15  1  0
  5  6  2  0
  6  7  1  0
  7  8  1  0
  8  9  2  0
  9  1  1  0
  8  4  1  0
 15 16  1  0
M  END
> <minimizedAffinity>
-4.30210

> <CNNscore>
0.5877861381

> <CNNaffinity>
3.3485088348

> <CNN_VS>
1.9682071209

> <CNNaffinity_variance>
0.2685590088

$$$$



 16 17  0  0  0  0  0  0  0  0999 V2000
   13.4068   10.0752   -2.3967 C   0  0  0  0  0  0  0  0  0  0  0  0
   12.9773   10.2618   -1.0766 C   0  0  0  0  0  0  0  0  0  0  0  0
   13.8835   10.5032   -0.0327 C   0  0  0  0  0  0  0  0  0  0  0  0
   15.2548   10.5574   -0.3349 C   0  0  0  0  0  0  0  0  0  0  0  0
   16.4576   10.7709    0.4068 C   0  0  0  0  0  0  0  0  0  0  0  0
   17.4819   10.6861   -0.5157 C   0  0  0  0  0  0  0  0  0  0  0  0
   16.9993   10.4436   -1.7602 O   0  0  0  0  0  0  0  0  0  0  0  0
   15.6447   10.3645   -1.6541 C   0  0  0  0  0  0  0  0  0  0  0  0
   14.7680   10.1235   -2.7127 C   0  0  0  0  0  0  0  0  0  0  0  0
   12.7141    9.0904   -4.4492 C   0  0  0  0  0  0  0  0  0  0  0  0
   12.3922    9.8510   -3.2910 O   0  0  0  0  0  0  0  0  0  0  0  0
   16.5878   11.0336    1.8650 C   0  0  0  0  0  0  0  0  0  0  0  0
   17.4783   12.2151    2.1433 C   0  0  0  0  0  0  0  0  0  0  0  0
   18.6649   12.3052    1.8700 O   0  0  0  0  0  0  0  0  0  0  0  0
   16.8334   13.2375    2.7412 O   0  0  0  0  0  0  0  0  0  0  0  0
   15.9227   13.1603    2.9476 H   0  0  0  0  0  0  0  0  0  0  0  0
 10 11  1  0
 11  1  1  0
  1  2  2  0
  2  3  1  0
  3  4  2  0
  4  5  1  0
  5 12  1  0
 12 13  1  0
 13 14  2  0
 13 15  1  0
  5  6  2  0
  6  7  1  0
  7  8  1  0
  8  9  2  0
  9  1  1  0
  8  4  1  0
 15 16  1  0
M  END
> <minimizedAffinity>
-6.49619

> <CNNscore>
0.5504764318

> <CNNaffinity>
3.8481962681

> <CNN_VS>
2.1183414459

> <CNNaffinity_variance>
0.3014053404

$$$$



 16 17  0  0  0  0  0  0  0  0999 V2000
   20.5756    6.8360    4.3675 C   0  0  0  0  0  0  0  0  0  0  0  0
   19.8381    7.2753    5.4744 C   0  0  0  0  0  0  0  0  0  0  0  0
   18.9577    8.3646    5.3894 C   0  0  0  0  0  0  0  0  0  0  0  0
   18.8216    9.0216    4.1547 C   0  0  0  0  0  0  0  0  0  0  0  0
   18.0626   10.1284    3.6636 C   0  0  0  0  0  0  0  0  0  0  0  0
   18.4125   10.2570    2.3339 C   0  0  0  0  0  0  0  0  0  0  0  0
   19.3194    9.3142    1.9743 O   0  0  0  0  0  0  0  0  0  0  0  0
   19.5708    8.5609    3.0796 C   0  0  0  0  0  0  0  0  0  0  0  0
   20.4532    7.4811    3.1330 C   0  0  0  0  0  0  0  0  0  0  0  0
   21.2640    4.6427    3.7525 C   0  0  0  0  0  0  0  0  0  0  0  0
   21.3864    5.7605    4.6237 O   0  0  0  0  0  0  0  0  0  0  0  0
   17.0943   10.9684    4.4181 C   0  0  0  0  0  0  0  0  0  0  0  0
   16.6199   12.1429    3.6046 C   0  0  0  0  0  0  0  0  0  0  0  0
   17.1765   13.2252    3.5063 O   0  0  0  0  0  0  0  0  0  0  0  0
   15.4726   11.8996    2.9388 O   0  0  0  0  0  0  0  0  0  0  0  0
   15.0518   11.0663    3.0196 H   0  0  0  0  0  0  0  0  0  0  0  0
 10 11  1  0
 11  1  1  0
  1  2  2  0
  2  3  1  0
  3  4  2  0
  4  5  1  0
  5 12  1  0
 12 13  1  0
 13 14  2  0
 13 15  1  0
  5  6  2  0
  6  7  1  0
  7  8  1  0
  8  9  2  0
  9  1  1  0
  8  4  1  0
 15 16  1  0
M  END
> <minimizedAffinity>
-4.91849

> <CNNscore>
0.5214165449

> <CNNaffinity>
3.2995913029

> <CNN_VS>
1.7204614878

> <CNNaffinity_variance>
0.2485623360

$$$$



 16 17  0  0  0  0  0  0  0  0999 V2000
    4.6776    8.3559   -7.6704 C   0  0  0  0  0  0  0  0  0  0  0  0
    5.1417    9.6668   -7.5029 C   0  0  0  0  0  0  0  0  0  0  0  0
    6.2231   10.1674   -8.2438 C   0  0  0  0  0  0  0  0  0  0  0  0
    6.8466    9.3200   -9.1755 C   0  0  0  0  0  0  0  0  0  0  0  0
    7.9356    9.4352  -10.0937 C   0  0  0  0  0  0  0  0  0  0  0  0
    8.0311    8.2039  -10.7117 C   0  0  0  0  0  0  0  0  0  0  0  0
    7.0845    7.3499  -10.2477 O   0  0  0  0  0  0  0  0  0  0  0  0
    6.3620    8.0255   -9.3127 C   0  0  0  0  0  0  0  0  0  0  0  0
    5.2892    7.4998   -8.5915 C   0  0  0  0  0  0  0  0  0  0  0  0
    3.7771    6.9059   -6.0125 C   0  0  0  0  0  0  0  0  0  0  0  0
    3.6141    8.0297   -6.8691 O   0  0  0  0  0  0  0  0  0  0  0  0
    8.7894   10.6277  -10.3408 C   0  0  0  0  0  0  0  0  0  0  0  0
    8.0133   11.7491  -10.9783 C   0  0  0  0  0  0  0  0  0  0  0  0
    7.7777   12.8387  -10.4801 O   0  0  0  0  0  0  0  0  0  0  0  0
    7.5791   11.4556  -12.2209 O   0  0  0  0  0  0  0  0  0  0  0  0
    7.7641   10.6172  -12.5960 H   0  0  0  0  0  0  0  0  0  0  0  0
 10 11  1  0
 11  1  1  0
  1  2  2  0
  2  3  1  0
  3  4  2  0
  4  5  1  0
  5 12  1  0
 12 13  1  0
 13 14  2  0
 13 15  1  0
  5  6  2  0
  6  7  1  0
  7  8  1  0
  8  9  2  0
  9  1  1  0
  8  4  1  0
 15 16  1  0
M  END
> <minimizedAffinity>
-3.47246

> <CNNscore>
0.4638739228

> <CNNaffinity>
2.8611831665

> <CNN_VS>
1.3272283077

> <CNNaffinity_variance>
0.7934188843

$$$$



 16 17  0  0  0  0  0  0  0  0999 V2000
   14.1250    9.2588    6.4519 C   0  0  0  0  0  0  0  0  0  0  0  0
   13.4132    8.8207    5.3279 C   0  0  0  0  0  0  0  0  0  0  0  0
   13.8275    9.1329    4.0241 C   0  0  0  0  0  0  0  0  0  0  0  0
   14.9894    9.9054    3.8570 C   0  0  0  0  0  0  0  0  0  0  0  0
   15.7220   10.4228    2.7444 C   0  0  0  0  0  0  0  0  0  0  0  0
   16.7824   11.1190    3.2904 C   0  0  0  0  0  0  0  0  0  0  0  0
   16.7576   11.0626    4.6457 O   0  0  0  0  0  0  0  0  0  0  0  0
   15.6679   10.3252    4.9940 C   0  0  0  0  0  0  0  0  0  0  0  0
   15.2814   10.0304    6.3021 C   0  0  0  0  0  0  0  0  0  0  0  0
   14.0413    9.5407    8.8133 C   0  0  0  0  0  0  0  0  0  0  0  0
   13.5836    8.8648    7.6483 O   0  0  0  0  0  0  0  0  0  0  0  0
   15.4160   10.2496    1.2992 C   0  0  0  0  0  0  0  0  0  0  0  0
   16.5919   10.6105    0.4312 C   0  0  0  0  0  0  0  0  0  0  0  0
   17.5500    9.8967    0.1798 O   0  0  0  0  0  0  0  0  0  0  0  0
   16.5041   11.8495   -0.0942 O   0  0  0  0  0  0  0  0  0  0  0  0
   15.7655   12.3910    0.1037 H   0  0  0  0  0  0  0  0  0  0  0  0
 10 11  1  0
 11  1  1  0
  1  2  2  0
  2  3  1  0
  3  4  2  0
  4  5  1  0
  5 12  1  0
 12 13  1  0
 13 14  2  0
 13 15  1  0
  5  6  2  0
  6  7  1  0
  7  8  1  0
  8  9  2  0
  9  1  1  0
  8  4  1  0
 15 16  1  0
M  END
> <minimizedAffinity>
-5.38289

> <CNNscore>
0.4638164937

> <CNNaffinity>
3.5928981304

> <CNN_VS>
1.6664453745

> <CNNaffinity_variance>
0.2355483323

$$$$



 16 17  0  0  0  0  0  0  0  0999 V2000
   18.8847   19.4441   -5.8464 C   0  0  0  0  0  0  0  0  0  0  0  0
   19.2270   19.1023   -4.5319 C   0  0  0  0  0  0  0  0  0  0  0  0
   18.8573   19.9036   -3.4408 C   0  0  0  0  0  0  0  0  0  0  0  0
   18.1238   21.0763   -3.6887 C   0  0  0  0  0  0  0  0  0  0  0  0
   17.5739   22.1264   -2.8903 C   0  0  0  0  0  0  0  0  0  0  0  0
   16.9703   22.9920   -3.7811 C   0  0  0  0  0  0  0  0  0  0  0  0
   17.1035   22.5507   -5.0571 O   0  0  0  0  0  0  0  0  0  0  0  0
   17.8049   21.3856   -5.0048 C   0  0  0  0  0  0  0  0  0  0  0  0
   18.1575   20.6091   -6.1094 C   0  0  0  0  0  0  0  0  0  0  0  0
   20.4669   17.7751   -6.4575 C   0  0  0  0  0  0  0  0  0  0  0  0
   19.3233   18.5525   -6.7910 O   0  0  0  0  0  0  0  0  0  0  0  0
   17.6318   22.2639   -1.4105 C   0  0  0  0  0  0  0  0  0  0  0  0
   19.0439   22.1787   -0.8954 C   0  0  0  0  0  0  0  0  0  0  0  0
   19.4558   21.4095   -0.0413 O   0  0  0  0  0  0  0  0  0  0  0  0
   19.8795   23.0559   -1.4878 O   0  0  0  0  0  0  0  0  0  0  0  0
   19.5554   23.6429   -2.1424 H   0  0  0  0  0  0  0  0  0  0  0  0
 10 11  1  0
 11  1  1  0
  1  2  2  0
  2  3  1  0
  3  4  2  0
  4  5  1  0
  5 12  1  0
 12 13  1  0
 13 14  2  0
 13 15  1  0
  5  6  2  0
  6  7  1  0
  7  8  1  0
  8  9  2  0
  9  1  1  0
  8  4  1  0
 15 16  1  0
M  END
> <minimizedAffinity>
-4.34503

> <CNNscore>
0.4483248293

> <CNNaffinity>
3.4253613949

> <CNN_VS>
1.5356745720

> <CNNaffinity_variance>
0.4437735975

$$$$
