


 25 26  0  0  0  0  0  0  0  0999 V2000
   -3.8415  -13.0592  -31.5948 C   0  0  0  0  0  0  0  0  0  0  0  0
   -2.6973  -12.2561  -31.6365 C   0  0  0  0  0  0  0  0  0  0  0  0
   -2.7615  -10.9142  -31.2543 C   0  0  0  0  0  0  0  0  0  0  0  0
   -3.9645  -10.3508  -30.8251 C   0  0  0  0  0  0  0  0  0  0  0  0
   -5.1086  -11.1465  -30.7783 C   0  0  0  0  0  0  0  0  0  0  0  0
   -5.0464  -12.4923  -31.1593 C   0  0  0  0  0  0  0  0  0  0  0  0
   -3.7808  -14.5156  -31.9989 C   0  0  0  0  0  0  0  0  0  0  0  0
   -2.9304  -14.7632  -33.2598 C   0  0  0  0  0  0  0  0  0  0  0  0
   -3.4343  -15.9096  -34.0569 N   0  0  0  0  0  0  0  0  0  0  0  0
   -3.3767  -16.7623  -33.5002 H   0  0  0  0  0  0  0  0  0  0  0  0
   -2.8672  -16.0140  -34.8983 H   0  0  0  0  0  0  0  0  0  0  0  0
    0.8671  -14.5429  -33.4748 C   0  0  0  0  0  0  0  0  0  0  0  0
   -0.5513  -14.3389  -33.6217 N   0  0  0  0  0  0  0  0  0  0  0  0
   -1.4647  -15.0572  -32.8711 C   0  0  0  0  0  0  0  0  0  0  0  0
   -1.1366  -15.8804  -32.0227 O   0  0  0  0  0  0  0  0  0  0  0  0
   -0.8776  -13.6740  -34.2702 H   0  0  0  0  0  0  0  0  0  0  0  0
   -3.8848   -9.0295  -30.4825 O   0  0  0  0  0  0  0  0  0  0  0  0
   -4.2387   -8.0783  -31.4816 C   0  0  0  0  0  0  0  0  0  0  0  0
   -3.5897   -6.7629  -31.1239 C   0  0  0  0  0  0  0  0  0  0  0  0
   -4.3525   -5.7183  -30.5811 C   0  0  0  0  0  0  0  0  0  0  0  0
   -3.7503   -4.5069  -30.2342 C   0  0  0  0  0  0  0  0  0  0  0  0
   -2.3798   -4.3387  -30.4200 C   0  0  0  0  0  0  0  0  0  0  0  0
   -1.5636   -2.6996  -29.9495 Br  0  0  0  0  0  0  0  0  0  0  0  0
   -1.6053   -5.3714  -30.9441 C   0  0  0  0  0  0  0  0  0  0  0  0
   -2.2087   -6.5825  -31.2906 C   0  0  0  0  0  0  0  0  0  0  0  0
 12 13  1  0
 13 14  1  0
 14 15  2  0
 14  8  1  0
  8  9  1  0
  8  7  1  0
  7  1  1  0
  1  2  2  0
  2  3  1  0
  3  4  2  0
  4 17  1  0
 17 18  1  0
 18 19  1  0
 19 20  2  0
 20 21  1  0
 21 22  2  0
 22 23  1  0
 22 24  1  0
 24 25  2  0
  4  5  1  0
  5  6  2  0
  6  1  1  0
 25 19  1  0
 13 16  1  0
  9 10  1  0
  9 11  1  0
M  END
> <minimizedAffinity>
-6.90416

> <CNNscore>
0.9201436639

> <CNNaffinity>
4.8565182686

> <CNN_VS>
4.4686946869

> <CNNaffinity_variance>
0.7391071916

$$$$



 25 26  0  0  0  0  0  0  0  0999 V2000
   -9.4752   -2.1318  -32.7768 C   0  0  0  0  0  0  0  0  0  0  0  0
   -9.7812   -3.0667  -31.7829 C   0  0  0  0  0  0  0  0  0  0  0  0
   -8.7801   -3.5564  -30.9409 C   0  0  0  0  0  0  0  0  0  0  0  0
   -7.4596   -3.1236  -31.0748 C   0  0  0  0  0  0  0  0  0  0  0  0
   -7.1479   -2.1893  -32.0619 C   0  0  0  0  0  0  0  0  0  0  0  0
   -8.1499   -1.6958  -32.9060 C   0  0  0  0  0  0  0  0  0  0  0  0
  -10.5535   -1.5893  -33.6884 C   0  0  0  0  0  0  0  0  0  0  0  0
  -10.7559   -2.4326  -34.9621 C   0  0  0  0  0  0  0  0  0  0  0  0
  -10.3659   -3.8507  -34.7608 N   0  0  0  0  0  0  0  0  0  0  0  0
   -9.3718   -3.9016  -34.5380 H   0  0  0  0  0  0  0  0  0  0  0  0
  -10.5506   -4.3785  -35.6138 H   0  0  0  0  0  0  0  0  0  0  0  0
   -9.0464   -2.3987  -38.3668 C   0  0  0  0  0  0  0  0  0  0  0  0
   -9.8599   -2.7073  -37.2189 N   0  0  0  0  0  0  0  0  0  0  0  0
   -9.9116   -1.8637  -36.1237 C   0  0  0  0  0  0  0  0  0  0  0  0
   -9.3039   -0.7995  -36.0671 O   0  0  0  0  0  0  0  0  0  0  0  0
  -10.3906   -3.5365  -37.2136 H   0  0  0  0  0  0  0  0  0  0  0  0
   -6.5834   -3.6841  -30.1873 O   0  0  0  0  0  0  0  0  0  0  0  0
   -6.0793   -4.9780  -30.5035 C   0  0  0  0  0  0  0  0  0  0  0  0
   -4.5718   -4.8982  -30.5266 C   0  0  0  0  0  0  0  0  0  0  0  0
   -3.9236   -3.6595  -30.4119 C   0  0  0  0  0  0  0  0  0  0  0  0
   -2.5289   -3.5862  -30.4164 C   0  0  0  0  0  0  0  0  0  0  0  0
   -1.7762   -4.7535  -30.5259 C   0  0  0  0  0  0  0  0  0  0  0  0
    0.1118   -4.6551  -30.5308 Br  0  0  0  0  0  0  0  0  0  0  0  0
   -2.4043   -5.9930  -30.6257 C   0  0  0  0  0  0  0  0  0  0  0  0
   -3.7991   -6.0652  -30.6211 C   0  0  0  0  0  0  0  0  0  0  0  0
 12 13  1  0
 13 14  1  0
 14 15  2  0
 14  8  1  0
  8  9  1  0
  8  7  1  0
  7  1  1  0
  1  2  2  0
  2  3  1  0
  3  4  2  0
  4 17  1  0
 17 18  1  0
 18 19  1  0
 19 20  2  0
 20 21  1  0
 21 22  2  0
 22 23  1  0
 22 24  1  0
 24 25  2  0
  4  5  1  0
  5  6  2  0
  6  1  1  0
 25 19  1  0
 13 16  1  0
  9 10  1  0
  9 11  1  0
M  END
> <minimizedAffinity>
-6.17041

> <CNNscore>
0.8502177596

> <CNNaffinity>
4.6203923225

> <CNN_VS>
3.9283397198

> <CNNaffinity_variance>
0.7504017949

$$$$



 25 26  0  0  0  0  0  0  0  0999 V2000
   -4.4469  -13.0145  -30.5559 C   0  0  0  0  0  0  0  0  0  0  0  0
   -4.9792  -11.8539  -29.9854 C   0  0  0  0  0  0  0  0  0  0  0  0
   -4.4886  -10.5980  -30.3502 C   0  0  0  0  0  0  0  0  0  0  0  0
   -3.4613  -10.4775  -31.2877 C   0  0  0  0  0  0  0  0  0  0  0  0
   -2.9279  -11.6305  -31.8628 C   0  0  0  0  0  0  0  0  0  0  0  0
   -3.4192  -12.8903  -31.5000 C   0  0  0  0  0  0  0  0  0  0  0  0
   -4.9768  -14.3787  -30.1737 C   0  0  0  0  0  0  0  0  0  0  0  0
   -5.6683  -14.4000  -28.7968 C   0  0  0  0  0  0  0  0  0  0  0  0
   -4.8059  -14.9997  -27.7479 N   0  0  0  0  0  0  0  0  0  0  0  0
   -4.6085  -15.9720  -27.9849 H   0  0  0  0  0  0  0  0  0  0  0  0
   -5.2861  -14.9595  -26.8490 H   0  0  0  0  0  0  0  0  0  0  0  0
   -9.1537  -15.3443  -30.0119 C   0  0  0  0  0  0  0  0  0  0  0  0
   -7.8411  -14.7733  -29.8509 N   0  0  0  0  0  0  0  0  0  0  0  0
   -6.9777  -15.2164  -28.8651 C   0  0  0  0  0  0  0  0  0  0  0  0
   -7.2525  -16.1297  -28.0933 O   0  0  0  0  0  0  0  0  0  0  0  0
   -7.5521  -14.0521  -30.4556 H   0  0  0  0  0  0  0  0  0  0  0  0
   -3.0775   -9.1918  -31.5506 O   0  0  0  0  0  0  0  0  0  0  0  0
   -4.0886   -8.1901  -31.4987 C   0  0  0  0  0  0  0  0  0  0  0  0
   -3.4311   -6.8828  -31.1268 C   0  0  0  0  0  0  0  0  0  0  0  0
   -4.1866   -5.8402  -30.5700 C   0  0  0  0  0  0  0  0  0  0  0  0
   -3.5765   -4.6366  -30.2102 C   0  0  0  0  0  0  0  0  0  0  0  0
   -2.2054   -4.4743  -30.3969 C   0  0  0  0  0  0  0  0  0  0  0  0
   -1.3786   -2.8457  -29.9088 Br  0  0  0  0  0  0  0  0  0  0  0  0
   -1.4381   -5.5053  -30.9347 C   0  0  0  0  0  0  0  0  0  0  0  0
   -2.0493   -6.7086  -31.2942 C   0  0  0  0  0  0  0  0  0  0  0  0
 12 13  1  0
 13 14  1  0
 14 15  2  0
 14  8  1  0
  8  9  1  0
  8  7  1  0
  7  1  1  0
  1  2  2  0
  2  3  1  0
  3  4  2  0
  4 17  1  0
 17 18  1  0
 18 19  1  0
 19 20  2  0
 20 21  1  0
 21 22  2  0
 22 23  1  0
 22 24  1  0
 24 25  2  0
  4  5  1  0
  5  6  2  0
  6  1  1  0
 25 19  1  0
 13 16  1  0
  9 10  1  0
  9 11  1  0
M  END
> <minimizedAffinity>
-7.21309

> <CNNscore>
0.8338807225

> <CNNaffinity>
4.6017074585

> <CNN_VS>
3.8372750282

> <CNNaffinity_variance>
0.9480921626

$$$$



 25 26  0  0  0  0  0  0  0  0999 V2000
   -8.8858   -1.9847  -32.6183 C   0  0  0  0  0  0  0  0  0  0  0  0
   -7.5732   -1.5752  -32.3633 C   0  0  0  0  0  0  0  0  0  0  0  0
   -6.7561   -2.3152  -31.5055 C   0  0  0  0  0  0  0  0  0  0  0  0
   -7.2322   -3.4734  -30.8885 C   0  0  0  0  0  0  0  0  0  0  0  0
   -8.5391   -3.8891  -31.1407 C   0  0  0  0  0  0  0  0  0  0  0  0
   -9.3595   -3.1500  -32.0013 C   0  0  0  0  0  0  0  0  0  0  0  0
   -9.7760   -1.1949  -33.5519 C   0  0  0  0  0  0  0  0  0  0  0  0
   -9.0152   -0.5736  -34.7392 C   0  0  0  0  0  0  0  0  0  0  0  0
   -9.2966    0.8765  -34.8856 N   0  0  0  0  0  0  0  0  0  0  0  0
  -10.2889    1.0126  -35.0781 H   0  0  0  0  0  0  0  0  0  0  0  0
   -8.7458    1.2535  -35.6569 H   0  0  0  0  0  0  0  0  0  0  0  0
  -11.3330   -1.7718  -37.5156 C   0  0  0  0  0  0  0  0  0  0  0  0
  -10.7485   -1.1155  -36.3743 N   0  0  0  0  0  0  0  0  0  0  0  0
   -9.4112   -1.2741  -36.0577 C   0  0  0  0  0  0  0  0  0  0  0  0
   -8.6374   -1.9471  -36.7311 O   0  0  0  0  0  0  0  0  0  0  0  0
  -11.3130   -0.5418  -35.8072 H   0  0  0  0  0  0  0  0  0  0  0  0
   -6.3285   -4.0982  -30.0746 O   0  0  0  0  0  0  0  0  0  0  0  0
   -5.7387   -5.2993  -30.5623 C   0  0  0  0  0  0  0  0  0  0  0  0
   -4.2398   -5.1192  -30.5550 C   0  0  0  0  0  0  0  0  0  0  0  0
   -3.3922   -6.2028  -30.8292 C   0  0  0  0  0  0  0  0  0  0  0  0
   -2.0059   -6.0336  -30.8391 C   0  0  0  0  0  0  0  0  0  0  0  0
   -1.4616   -4.7768  -30.5841 C   0  0  0  0  0  0  0  0  0  0  0  0
    0.4148   -4.5467  -30.5986 Br  0  0  0  0  0  0  0  0  0  0  0  0
   -2.2899   -3.6870  -30.3246 C   0  0  0  0  0  0  0  0  0  0  0  0
   -3.6761   -3.8573  -30.3150 C   0  0  0  0  0  0  0  0  0  0  0  0
 12 13  1  0
 13 14  1  0
 14 15  2  0
 14  8  1  0
  8  9  1  0
  8  7  1  0
  7  1  1  0
  1  2  2  0
  2  3  1  0
  3  4  2  0
  4 17  1  0
 17 18  1  0
 18 19  1  0
 19 20  2  0
 20 21  1  0
 21 22  2  0
 22 23  1  0
 22 24  1  0
 24 25  2  0
  4  5  1  0
  5  6  2  0
  6  1  1  0
 25 19  1  0
 13 16  1  0
  9 10  1  0
  9 11  1  0
M  END
> <minimizedAffinity>
-6.51603

> <CNNscore>
0.8114395738

> <CNNaffinity>
4.8227868080

> <CNN_VS>
3.9134001732

> <CNNaffinity_variance>
0.5487377644

$$$$



 25 26  0  0  0  0  0  0  0  0999 V2000
   -9.7576   -2.6768  -32.6662 C   0  0  0  0  0  0  0  0  0  0  0  0
   -9.5837   -3.9421  -32.0965 C   0  0  0  0  0  0  0  0  0  0  0  0
   -8.4623   -4.2148  -31.3097 C   0  0  0  0  0  0  0  0  0  0  0  0
   -7.4970   -3.2333  -31.0778 C   0  0  0  0  0  0  0  0  0  0  0  0
   -7.6656   -1.9686  -31.6404 C   0  0  0  0  0  0  0  0  0  0  0  0
   -8.7895   -1.6924  -32.4280 C   0  0  0  0  0  0  0  0  0  0  0  0
  -10.9725   -2.3690  -33.5131 C   0  0  0  0  0  0  0  0  0  0  0  0
  -10.6311   -1.6361  -34.8249 C   0  0  0  0  0  0  0  0  0  0  0  0
   -9.2404   -1.9047  -35.2691 N   0  0  0  0  0  0  0  0  0  0  0  0
   -8.5864   -1.5571  -34.5678 H   0  0  0  0  0  0  0  0  0  0  0  0
   -9.0698   -1.4323  -36.1569 H   0  0  0  0  0  0  0  0  0  0  0  0
   -9.9584    2.0595  -35.4619 C   0  0  0  0  0  0  0  0  0  0  0  0
  -10.0202    0.6221  -35.5312 N   0  0  0  0  0  0  0  0  0  0  0  0
  -10.7907   -0.1102  -34.6459 C   0  0  0  0  0  0  0  0  0  0  0  0
  -11.4858    0.4050  -33.7761 O   0  0  0  0  0  0  0  0  0  0  0  0
   -9.5028    0.1506  -36.2235 H   0  0  0  0  0  0  0  0  0  0  0  0
   -6.4528   -3.6354  -30.2921 O   0  0  0  0  0  0  0  0  0  0  0  0
   -5.9411   -4.9458  -30.5146 C   0  0  0  0  0  0  0  0  0  0  0  0
   -4.4340   -4.8598  -30.5406 C   0  0  0  0  0  0  0  0  0  0  0  0
   -3.6642   -5.9772  -30.8962 C   0  0  0  0  0  0  0  0  0  0  0  0
   -2.2707   -5.8941  -30.9368 C   0  0  0  0  0  0  0  0  0  0  0  0
   -1.6414   -4.6893  -30.6311 C   0  0  0  0  0  0  0  0  0  0  0  0
    0.2449   -4.5757  -30.6871 Br  0  0  0  0  0  0  0  0  0  0  0  0
   -2.3919   -3.5660  -30.2906 C   0  0  0  0  0  0  0  0  0  0  0  0
   -3.7855   -3.6503  -30.2503 C   0  0  0  0  0  0  0  0  0  0  0  0
 12 13  1  0
 13 14  1  0
 14 15  2  0
 14  8  1  0
  8  9  1  0
  8  7  1  0
  7  1  1  0
  1  2  2  0
  2  3  1  0
  3  4  2  0
  4 17  1  0
 17 18  1  0
 18 19  1  0
 19 20  2  0
 20 21  1  0
 21 22  2  0
 22 23  1  0
 22 24  1  0
 24 25  2  0
  4  5  1  0
  5  6  2  0
  6  1  1  0
 25 19  1  0
 13 16  1  0
  9 10  1  0
  9 11  1  0
M  END
> <minimizedAffinity>
-6.11797

> <CNNscore>
0.8052077889

> <CNNaffinity>
4.8101897240

> <CNN_VS>
3.8732023239

> <CNNaffinity_variance>
0.3964440525

$$$$



 25 26  0  0  0  0  0  0  0  0999 V2000
  -10.2474   -2.7973  -28.9171 C   0  0  0  0  0  0  0  0  0  0  0  0
   -9.4135   -3.8423  -28.5069 C   0  0  0  0  0  0  0  0  0  0  0  0
   -8.2340   -4.1197  -29.2018 C   0  0  0  0  0  0  0  0  0  0  0  0
   -7.8664   -3.3621  -30.3153 C   0  0  0  0  0  0  0  0  0  0  0  0
   -8.6918   -2.3168  -30.7281 C   0  0  0  0  0  0  0  0  0  0  0  0
   -9.8736   -2.0358  -30.0322 C   0  0  0  0  0  0  0  0  0  0  0  0
  -11.5226   -2.4837  -28.1665 C   0  0  0  0  0  0  0  0  0  0  0  0
  -11.5194   -1.0865  -27.5168 C   0  0  0  0  0  0  0  0  0  0  0  0
  -10.3109   -0.8600  -26.6852 N   0  0  0  0  0  0  0  0  0  0  0  0
  -10.2946   -1.5328  -25.9187 H   0  0  0  0  0  0  0  0  0  0  0  0
  -10.3314    0.0868  -26.3062 H   0  0  0  0  0  0  0  0  0  0  0  0
  -14.0029    0.7534  -25.2890 C   0  0  0  0  0  0  0  0  0  0  0  0
  -12.9535    0.3991  -26.2099 N   0  0  0  0  0  0  0  0  0  0  0  0
  -12.7613   -0.9094  -26.6155 C   0  0  0  0  0  0  0  0  0  0  0  0
  -13.4762   -1.8371  -26.2502 O   0  0  0  0  0  0  0  0  0  0  0  0
  -12.3603    1.1034  -26.5582 H   0  0  0  0  0  0  0  0  0  0  0  0
   -6.6904   -3.7421  -30.9001 O   0  0  0  0  0  0  0  0  0  0  0  0
   -6.1568   -5.0070  -30.5208 C   0  0  0  0  0  0  0  0  0  0  0  0
   -4.6508   -4.9021  -30.5386 C   0  0  0  0  0  0  0  0  0  0  0  0
   -4.0228   -3.6585  -30.3753 C   0  0  0  0  0  0  0  0  0  0  0  0
   -2.6295   -3.5627  -30.3749 C   0  0  0  0  0  0  0  0  0  0  0  0
   -1.8579   -4.7126  -30.5283 C   0  0  0  0  0  0  0  0  0  0  0  0
    0.0282   -4.5838  -30.5266 Br  0  0  0  0  0  0  0  0  0  0  0  0
   -2.4659   -5.9573  -30.6767 C   0  0  0  0  0  0  0  0  0  0  0  0
   -3.8593   -6.0520  -30.6768 C   0  0  0  0  0  0  0  0  0  0  0  0
 12 13  1  0
 13 14  1  0
 14 15  2  0
 14  8  1  0
  8  9  1  0
  8  7  1  0
  7  1  1  0
  1  2  2  0
  2  3  1  0
  3  4  2  0
  4 17  1  0
 17 18  1  0
 18 19  1  0
 19 20  2  0
 20 21  1  0
 21 22  2  0
 22 23  1  0
 22 24  1  0
 24 25  2  0
  4  5  1  0
  5  6  2  0
  6  1  1  0
 25 19  1  0
 13 16  1  0
  9 10  1  0
  9 11  1  0
M  END
> <minimizedAffinity>
-6.91457

> <CNNscore>
0.8040955067

> <CNNaffinity>
4.7738289833

> <CNN_VS>
3.8386144638

> <CNNaffinity_variance>
0.9995825887

$$$$



 25 26  0  0  0  0  0  0  0  0999 V2000
  -10.9522   -5.0274  -29.5971 C   0  0  0  0  0  0  0  0  0  0  0  0
  -10.3907   -4.2147  -28.6071 C   0  0  0  0  0  0  0  0  0  0  0  0
   -9.0217   -3.9377  -28.6126 C   0  0  0  0  0  0  0  0  0  0  0  0
   -8.1906   -4.4648  -29.6027 C   0  0  0  0  0  0  0  0  0  0  0  0
   -8.7442   -5.2736  -30.5945 C   0  0  0  0  0  0  0  0  0  0  0  0
  -10.1164   -5.5513  -30.5921 C   0  0  0  0  0  0  0  0  0  0  0  0
  -12.4348   -5.3268  -29.6046 C   0  0  0  0  0  0  0  0  0  0  0  0
  -12.8589   -6.3328  -28.5172 C   0  0  0  0  0  0  0  0  0  0  0  0
  -12.9978   -5.6908  -27.1860 N   0  0  0  0  0  0  0  0  0  0  0  0
  -12.0955   -5.3158  -26.8936 H   0  0  0  0  0  0  0  0  0  0  0  0
  -13.3150   -6.3823  -26.5065 H   0  0  0  0  0  0  0  0  0  0  0  0
  -11.1743   -9.6511  -29.3338 C   0  0  0  0  0  0  0  0  0  0  0  0
  -11.9877   -8.4623  -29.3403 N   0  0  0  0  0  0  0  0  0  0  0  0
  -11.8161   -7.4658  -28.3963 C   0  0  0  0  0  0  0  0  0  0  0  0
  -10.9556   -7.5098  -27.5229 O   0  0  0  0  0  0  0  0  0  0  0  0
  -12.6807   -8.3567  -30.0316 H   0  0  0  0  0  0  0  0  0  0  0  0
   -6.8739   -4.1146  -29.4874 O   0  0  0  0  0  0  0  0  0  0  0  0
   -6.2348   -3.6028  -30.6526 C   0  0  0  0  0  0  0  0  0  0  0  0
   -4.7750   -3.9828  -30.5888 C   0  0  0  0  0  0  0  0  0  0  0  0
   -3.7907   -2.9976  -30.4207 C   0  0  0  0  0  0  0  0  0  0  0  0
   -2.4413   -3.3496  -30.3448 C   0  0  0  0  0  0  0  0  0  0  0  0
   -2.0714   -4.6902  -30.4270 C   0  0  0  0  0  0  0  0  0  0  0  0
   -0.2451   -5.1675  -30.3231 Br  0  0  0  0  0  0  0  0  0  0  0  0
   -3.0377   -5.6822  -30.5791 C   0  0  0  0  0  0  0  0  0  0  0  0
   -4.3869   -5.3292  -30.6549 C   0  0  0  0  0  0  0  0  0  0  0  0
 12 13  1  0
 13 14  1  0
 14 15  2  0
 14  8  1  0
  8  9  1  0
  8  7  1  0
  7  1  1  0
  1  2  2  0
  2  3  1  0
  3  4  2  0
  4 17  1  0
 17 18  1  0
 18 19  1  0
 19 20  2  0
 20 21  1  0
 21 22  2  0
 22 23  1  0
 22 24  1  0
 24 25  2  0
  4  5  1  0
  5  6  2  0
  6  1  1  0
 25 19  1  0
 13 16  1  0
  9 10  1  0
  9 11  1  0
M  END
> <minimizedAffinity>
-5.29476

> <CNNscore>
0.7695879936

> <CNNaffinity>
4.2810692787

> <CNN_VS>
3.2946596146

> <CNNaffinity_variance>
0.6896555424

$$$$



 25 26  0  0  0  0  0  0  0  0999 V2000
   -9.3085   -2.2337  -32.1664 C   0  0  0  0  0  0  0  0  0  0  0  0
   -9.4034   -3.5745  -31.7802 C   0  0  0  0  0  0  0  0  0  0  0  0
   -8.3738   -4.1746  -31.0517 C   0  0  0  0  0  0  0  0  0  0  0  0
   -7.2344   -3.4505  -30.6964 C   0  0  0  0  0  0  0  0  0  0  0  0
   -7.1345   -2.1124  -31.0757 C   0  0  0  0  0  0  0  0  0  0  0  0
   -8.1659   -1.5081  -31.8045 C   0  0  0  0  0  0  0  0  0  0  0  0
  -10.4215   -1.5723  -32.9485 C   0  0  0  0  0  0  0  0  0  0  0  0
  -11.3385   -0.6919  -32.0776 C   0  0  0  0  0  0  0  0  0  0  0  0
  -10.6790    0.5762  -31.6771 N   0  0  0  0  0  0  0  0  0  0  0  0
   -9.8578    0.3678  -31.1092 H   0  0  0  0  0  0  0  0  0  0  0  0
  -11.3319    1.1427  -31.1356 H   0  0  0  0  0  0  0  0  0  0  0  0
  -11.3532   -1.5412  -28.3636 C   0  0  0  0  0  0  0  0  0  0  0  0
  -11.1709   -0.9203  -29.6505 N   0  0  0  0  0  0  0  0  0  0  0  0
  -11.7467   -1.4462  -30.7931 C   0  0  0  0  0  0  0  0  0  0  0  0
  -12.4640   -2.4415  -30.7860 O   0  0  0  0  0  0  0  0  0  0  0  0
  -10.6247   -0.1040  -29.7183 H   0  0  0  0  0  0  0  0  0  0  0  0
   -6.3065   -4.1604  -29.9861 O   0  0  0  0  0  0  0  0  0  0  0  0
   -5.7238   -5.2900  -30.6285 C   0  0  0  0  0  0  0  0  0  0  0  0
   -4.2243   -5.1156  -30.6088 C   0  0  0  0  0  0  0  0  0  0  0  0
   -3.3783   -6.2073  -30.8542 C   0  0  0  0  0  0  0  0  0  0  0  0
   -1.9913   -6.0436  -30.8528 C   0  0  0  0  0  0  0  0  0  0  0  0
   -1.4446   -4.7844  -30.6152 C   0  0  0  0  0  0  0  0  0  0  0  0
    0.4328   -4.5619  -30.6143 Br  0  0  0  0  0  0  0  0  0  0  0  0
   -2.2711   -3.6869  -30.3844 C   0  0  0  0  0  0  0  0  0  0  0  0
   -3.6580   -3.8517  -30.3862 C   0  0  0  0  0  0  0  0  0  0  0  0
 12 13  1  0
 13 14  1  0
 14 15  2  0
 14  8  1  0
  8  9  1  0
  8  7  1  0
  7  1  1  0
  1  2  2  0
  2  3  1  0
  3  4  2  0
  4 17  1  0
 17 18  1  0
 18 19  1  0
 19 20  2  0
 20 21  1  0
 21 22  2  0
 22 23  1  0
 22 24  1  0
 24 25  2  0
  4  5  1  0
  5  6  2  0
  6  1  1  0
 25 19  1  0
 13 16  1  0
  9 10  1  0
  9 11  1  0
M  END
> <minimizedAffinity>
-6.54609

> <CNNscore>
0.7418059111

> <CNNaffinity>
5.0531258583

> <CNN_VS>
3.7484385967

> <CNNaffinity_variance>
0.4807755053

$$$$



 25 26  0  0  0  0  0  0  0  0999 V2000
  -11.0664   -5.6032  -29.1242 C   0  0  0  0  0  0  0  0  0  0  0  0
  -10.0893   -6.0863  -30.0004 C   0  0  0  0  0  0  0  0  0  0  0  0
   -8.8276   -5.4892  -30.0506 C   0  0  0  0  0  0  0  0  0  0  0  0
   -8.5187   -4.4026  -29.2303 C   0  0  0  0  0  0  0  0  0  0  0  0
   -9.4873   -3.9177  -28.3522 C   0  0  0  0  0  0  0  0  0  0  0  0
  -10.7521   -4.5156  -28.2988 C   0  0  0  0  0  0  0  0  0  0  0  0
  -12.4330   -6.2480  -29.0564 C   0  0  0  0  0  0  0  0  0  0  0  0
  -12.6014   -7.4238  -30.0380 C   0  0  0  0  0  0  0  0  0  0  0  0
  -13.1990   -6.9940  -31.3270 N   0  0  0  0  0  0  0  0  0  0  0  0
  -14.1343   -6.6226  -31.1611 H   0  0  0  0  0  0  0  0  0  0  0  0
  -13.2575   -7.7934  -31.9579 H   0  0  0  0  0  0  0  0  0  0  0  0
  -14.8875  -10.4715  -29.9991 C   0  0  0  0  0  0  0  0  0  0  0  0
  -13.9525   -9.4352  -30.3550 N   0  0  0  0  0  0  0  0  0  0  0  0
  -13.5135   -8.5095  -29.4254 C   0  0  0  0  0  0  0  0  0  0  0  0
  -13.8595   -8.5245  -28.2485 O   0  0  0  0  0  0  0  0  0  0  0  0
  -13.6186   -9.3846  -31.2798 H   0  0  0  0  0  0  0  0  0  0  0  0
   -7.2502   -3.9159  -29.3829 O   0  0  0  0  0  0  0  0  0  0  0  0
   -6.6970   -3.9479  -30.6948 C   0  0  0  0  0  0  0  0  0  0  0  0
   -5.2188   -4.2294  -30.5709 C   0  0  0  0  0  0  0  0  0  0  0  0
   -4.7467   -5.5500  -30.5407 C   0  0  0  0  0  0  0  0  0  0  0  0
   -3.3783   -5.8114  -30.4429 C   0  0  0  0  0  0  0  0  0  0  0  0
   -2.4751   -4.7522  -30.3846 C   0  0  0  0  0  0  0  0  0  0  0  0
   -0.6225   -5.1054  -30.2535 Br  0  0  0  0  0  0  0  0  0  0  0  0
   -2.9265   -3.4349  -30.4284 C   0  0  0  0  0  0  0  0  0  0  0  0
   -4.2952   -3.1746  -30.5263 C   0  0  0  0  0  0  0  0  0  0  0  0
 12 13  1  0
 13 14  1  0
 14 15  2  0
 14  8  1  0
  8  9  1  0
  8  7  1  0
  7  1  1  0
  1  2  2  0
  2  3  1  0
  3  4  2  0
  4 17  1  0
 17 18  1  0
 18 19  1  0
 19 20  2  0
 20 21  1  0
 21 22  2  0
 22 23  1  0
 22 24  1  0
 24 25  2  0
  4  5  1  0
  5  6  2  0
  6  1  1  0
 25 19  1  0
 13 16  1  0
  9 10  1  0
  9 11  1  0
M  END
> <minimizedAffinity>
-4.91377

> <CNNscore>
0.6806850433

> <CNNaffinity>
4.2350592613

> <CNN_VS>
2.8827414513

> <CNNaffinity_variance>
0.6473799348

$$$$
