


 39 42  0  0  0  0  0  0  0  0999 V2000
   19.1731   18.7987   33.5165 C   0  0  0  0  0  0  0  0  0  0  0  0
   18.6228   17.6974   32.8702 C   0  0  0  0  0  0  0  0  0  0  0  0
   19.4544   16.6496   32.4795 C   0  0  0  0  0  0  0  0  0  0  0  0
   20.8383   16.6940   32.7192 C   0  0  0  0  0  0  0  0  0  0  0  0
   21.6381   15.6114   32.3381 C   0  0  0  0  0  0  0  0  0  0  0  0
   23.0102   15.6180   32.5868 C   0  0  0  0  0  0  0  0  0  0  0  0
   23.6026   16.7370   33.1771 C   0  0  0  0  0  0  0  0  0  0  0  0
   22.8410   17.8526   33.5581 C   0  0  0  0  0  0  0  0  0  0  0  0
   21.4252   17.8219   33.3548 C   0  0  0  0  0  0  0  0  0  0  0  0
   20.5520   18.8618   33.7565 C   0  0  0  0  0  0  0  0  0  0  0  0
   18.7958   21.0636   34.3131 N   0  0  0  0  0  0  0  0  0  0  0  0
   18.3052   19.9199   33.9557 C   0  0  0  0  0  0  0  0  0  0  0  0
   16.9542   19.7776   33.9951 N   0  0  0  0  0  0  0  0  0  0  0  0
   18.1951   21.7889   34.5998 H   0  0  0  0  0  0  0  0  0  0  0  0
   16.3885   20.5281   34.2882 H   0  0  0  0  0  0  0  0  0  0  0  0
   16.5413   18.9239   33.7307 H   0  0  0  0  0  0  0  0  0  0  0  0
   23.8144   14.4283   32.1879 C   0  0  0  0  0  0  0  0  0  0  0  0
   23.3891   13.3187   32.4855 O   0  0  0  0  0  0  0  0  0  0  0  0
   25.0036   14.7201   31.5441 N   0  0  0  0  0  0  0  0  0  0  0  0
   25.2164   15.6748   31.4330 H   0  0  0  0  0  0  0  0  0  0  0  0
   25.9461   13.8060   31.0290 C   0  0  0  0  0  0  0  0  0  0  0  0
   26.1671   13.5956   29.6681 C   0  0  0  0  0  0  0  0  0  0  0  0
   27.1264   12.6710   29.2383 C   0  0  0  0  0  0  0  0  0  0  0  0
   27.8791   11.9371   30.1630 C   0  0  0  0  0  0  0  0  0  0  0  0
   27.6659   12.1582   31.5282 C   0  0  0  0  0  0  0  0  0  0  0  0
   26.7066   13.0820   31.9555 C   0  0  0  0  0  0  0  0  0  0  0  0
   28.9285   10.9625   29.6961 C   0  0  0  0  0  0  0  0  0  0  0  0
   29.5056   11.3773   28.4230 N   0  0  0  0  0  0  0  0  0  0  0  0
   28.7735   11.4136   27.7136 H   0  0  0  0  0  0  0  0  0  0  0  0
   30.2208   10.7076   28.1396 H   0  0  0  0  0  0  0  0  0  0  0  0
   23.4414   18.9543   34.1990 N   0  0  0  0  0  0  0  0  0  0  0  0
   23.4247   19.7765   33.6577 H   0  0  0  0  0  0  0  0  0  0  0  0
   24.0532   19.1229   35.4379 C   0  0  0  0  0  0  0  0  0  0  0  0
   23.8619   18.1149   36.3068 N   0  0  0  0  0  0  0  0  0  0  0  0
   24.4539   18.2162   37.5179 C   0  0  0  0  0  0  0  0  0  0  0  0
   25.2325   19.2814   37.8917 C   0  0  0  0  0  0  0  0  0  0  0  0
   26.0417   19.3934   39.5796 Br  0  0  0  0  0  0  0  0  0  0  0  0
   25.3780   20.2591   36.9402 C   0  0  0  0  0  0  0  0  0  0  0  0
   24.8058   20.2023   35.7166 N   0  0  0  0  0  0  0  0  0  0  0  0
 11 12  2  0
 12 13  1  0
 12  1  1  0
  1  2  2  0
  2  3  1  0
  3  4  2  0
  4  5  1  0
  5  6  2  0
  6 17  1  0
 17 18  2  0
 17 19  1  0
 19 21  1  0
 21 22  2  0
 22 23  1  0
 23 24  2  0
 24 27  1  0
 27 28  1  0
 24 25  1  0
 25 26  2  0
  6  7  1  0
  7  8  2  0
  8 31  1  0
 31 33  1  0
 33 34  2  0
 34 35  1  0
 35 36  2  0
 36 37  1  0
 36 38  1  0
 38 39  2  0
  8  9  1  0
  9 10  2  0
 10  1  1  0
  9  4  1  0
 26 21  1  0
 39 33  1  0
 11 14  1  0
 13 15  1  0
 13 16  1  0
 19 20  1  0
 28 29  1  0
 28 30  1  0
 31 32  1  0
M  END
> <minimizedAffinity>
-9.17790

> <CNNscore>
0.9391555786

> <CNNaffinity>
7.0690646172

> <CNN_VS>
6.6389513016

> <CNNaffinity_variance>
0.1767263860

$$$$



 39 42  0  0  0  0  0  0  0  0999 V2000
   19.0447   18.8473   33.6201 C   0  0  0  0  0  0  0  0  0  0  0  0
   18.5296   17.7188   32.9920 C   0  0  0  0  0  0  0  0  0  0  0  0
   19.3760   16.6479   32.7112 C   0  0  0  0  0  0  0  0  0  0  0  0
   20.7406   16.6957   33.0432 C   0  0  0  0  0  0  0  0  0  0  0  0
   21.5544   15.5907   32.7715 C   0  0  0  0  0  0  0  0  0  0  0  0
   22.9061   15.6012   33.1136 C   0  0  0  0  0  0  0  0  0  0  0  0
   23.4673   16.7442   33.6880 C   0  0  0  0  0  0  0  0  0  0  0  0
   22.6920   17.8819   33.9606 C   0  0  0  0  0  0  0  0  0  0  0  0
   21.2933   17.8500   33.6620 C   0  0  0  0  0  0  0  0  0  0  0  0
   20.4045   18.9137   33.9513 C   0  0  0  0  0  0  0  0  0  0  0  0
   16.8695   19.8844   33.9353 N   0  0  0  0  0  0  0  0  0  0  0  0
   18.1595   19.9941   33.9432 C   0  0  0  0  0  0  0  0  0  0  0  0
   18.6834   21.2071   34.2614 N   0  0  0  0  0  0  0  0  0  0  0  0
   16.3079   20.6629   34.1539 H   0  0  0  0  0  0  0  0  0  0  0  0
   18.0865   21.9606   34.4740 H   0  0  0  0  0  0  0  0  0  0  0  0
   19.6598   21.3322   34.2795 H   0  0  0  0  0  0  0  0  0  0  0  0
   23.7244   14.3883   32.8297 C   0  0  0  0  0  0  0  0  0  0  0  0
   24.7958   14.5372   32.2546 O   0  0  0  0  0  0  0  0  0  0  0  0
   23.1480   13.1934   33.2220 N   0  0  0  0  0  0  0  0  0  0  0  0
   22.2517   13.2533   33.6248 H   0  0  0  0  0  0  0  0  0  0  0  0
   23.6977   11.8994   33.1108 C   0  0  0  0  0  0  0  0  0  0  0  0
   24.7213   11.5588   32.2269 C   0  0  0  0  0  0  0  0  0  0  0  0
   25.2150   10.2495   32.1814 C   0  0  0  0  0  0  0  0  0  0  0  0
   24.6901    9.2564   33.0171 C   0  0  0  0  0  0  0  0  0  0  0  0
   23.6721    9.6019   33.9128 C   0  0  0  0  0  0  0  0  0  0  0  0
   23.1799   10.9104   33.9562 C   0  0  0  0  0  0  0  0  0  0  0  0
   25.2424    7.8552   32.9832 C   0  0  0  0  0  0  0  0  0  0  0  0
   24.7772    7.0764   34.1246 N   0  0  0  0  0  0  0  0  0  0  0  0
   25.0933    7.5172   34.9884 H   0  0  0  0  0  0  0  0  0  0  0  0
   25.1550    6.1306   34.0675 H   0  0  0  0  0  0  0  0  0  0  0  0
   23.2575   19.0103   34.5868 N   0  0  0  0  0  0  0  0  0  0  0  0
   23.1028   19.8481   34.0934 H   0  0  0  0  0  0  0  0  0  0  0  0
   23.9892   19.1877   35.7576 C   0  0  0  0  0  0  0  0  0  0  0  0
   23.9394   18.1568   36.6193 N   0  0  0  0  0  0  0  0  0  0  0  0
   24.6516   18.2665   37.7630 C   0  0  0  0  0  0  0  0  0  0  0  0
   25.4145   19.3623   38.0760 C   0  0  0  0  0  0  0  0  0  0  0  0
   26.3927   19.4853   39.6711 Br  0  0  0  0  0  0  0  0  0  0  0  0
   25.4115   20.3620   37.1364 C   0  0  0  0  0  0  0  0  0  0  0  0
   24.7154   20.2980   35.9791 N   0  0  0  0  0  0  0  0  0  0  0  0
 11 12  2  0
 12 13  1  0
 12  1  1  0
  1  2  2  0
  2  3  1  0
  3  4  2  0
  4  5  1  0
  5  6  2  0
  6 17  1  0
 17 18  2  0
 17 19  1  0
 19 21  1  0
 21 22  2  0
 22 23  1  0
 23 24  2  0
 24 27  1  0
 27 28  1  0
 24 25  1  0
 25 26  2  0
  6  7  1  0
  7  8  2  0
  8 31  1  0
 31 33  1  0
 33 34  2  0
 34 35  1  0
 35 36  2  0
 36 37  1  0
 36 38  1  0
 38 39  2  0
  8  9  1  0
  9 10  2  0
 10  1  1  0
  9  4  1  0
 26 21  1  0
 39 33  1  0
 11 14  1  0
 13 15  1  0
 13 16  1  0
 19 20  1  0
 28 29  1  0
 28 30  1  0
 31 32  1  0
M  END
> <minimizedAffinity>
-10.05490

> <CNNscore>
0.9372978806

> <CNNaffinity>
7.2241911888

> <CNN_VS>
6.7712192535

> <CNNaffinity_variance>
0.2432123423

$$$$



 39 42  0  0  0  0  0  0  0  0999 V2000
   19.1590   18.6785   33.7703 C   0  0  0  0  0  0  0  0  0  0  0  0
   18.6161   17.4600   33.3781 C   0  0  0  0  0  0  0  0  0  0  0  0
   19.4574   16.3631   33.2024 C   0  0  0  0  0  0  0  0  0  0  0  0
   20.8437   16.4725   33.4051 C   0  0  0  0  0  0  0  0  0  0  0  0
   21.6538   15.3431   33.2466 C   0  0  0  0  0  0  0  0  0  0  0  0
   23.0288   15.4172   33.4663 C   0  0  0  0  0  0  0  0  0  0  0  0
   23.6129   16.6418   33.7994 C   0  0  0  0  0  0  0  0  0  0  0  0
   22.8404   17.8037   33.9503 C   0  0  0  0  0  0  0  0  0  0  0  0
   21.4226   17.7151   33.7807 C   0  0  0  0  0  0  0  0  0  0  0  0
   20.5400   18.8062   33.9696 C   0  0  0  0  0  0  0  0  0  0  0  0
   18.7637   21.0342   34.2189 N   0  0  0  0  0  0  0  0  0  0  0  0
   18.2810   19.8571   33.9787 C   0  0  0  0  0  0  0  0  0  0  0  0
   16.9288   19.7339   33.9219 N   0  0  0  0  0  0  0  0  0  0  0  0
   18.1563   21.7974   34.3529 H   0  0  0  0  0  0  0  0  0  0  0  0
   16.3563   20.5225   34.0617 H   0  0  0  0  0  0  0  0  0  0  0  0
   16.5217   18.8559   33.7409 H   0  0  0  0  0  0  0  0  0  0  0  0
   23.8447   14.1795   33.3127 C   0  0  0  0  0  0  0  0  0  0  0  0
   25.0517   14.3018   33.1426 O   0  0  0  0  0  0  0  0  0  0  0  0
   23.1221   13.0001   33.3397 N   0  0  0  0  0  0  0  0  0  0  0  0
   22.1460   13.0888   33.4322 H   0  0  0  0  0  0  0  0  0  0  0  0
   23.6240   11.6851   33.2499 C   0  0  0  0  0  0  0  0  0  0  0  0
   23.2821   10.6568   34.1278 C   0  0  0  0  0  0  0  0  0  0  0  0
   23.8225    9.3754   33.9667 C   0  0  0  0  0  0  0  0  0  0  0  0
   24.7181    9.1011   32.9262 C   0  0  0  0  0  0  0  0  0  0  0  0
   25.0506   10.1300   32.0380 C   0  0  0  0  0  0  0  0  0  0  0  0
   24.5100   11.4096   32.2011 C   0  0  0  0  0  0  0  0  0  0  0  0
   25.2767    7.7143   32.7410 C   0  0  0  0  0  0  0  0  0  0  0  0
   25.3152    7.3443   31.3313 N   0  0  0  0  0  0  0  0  0  0  0  0
   24.3687    7.3544   30.9511 H   0  0  0  0  0  0  0  0  0  0  0  0
   25.7098    6.4085   31.2361 H   0  0  0  0  0  0  0  0  0  0  0  0
   23.4333   19.0222   34.3363 N   0  0  0  0  0  0  0  0  0  0  0  0
   23.0423   19.8056   33.8862 H   0  0  0  0  0  0  0  0  0  0  0  0
   24.4566   19.3494   35.2213 C   0  0  0  0  0  0  0  0  0  0  0  0
   25.6932   19.3211   34.6941 N   0  0  0  0  0  0  0  0  0  0  0  0
   26.7231   19.6537   35.5041 C   0  0  0  0  0  0  0  0  0  0  0  0
   26.5649   20.0178   36.8168 C   0  0  0  0  0  0  0  0  0  0  0  0
   28.0138   20.4747   37.9161 Br  0  0  0  0  0  0  0  0  0  0  0  0
   25.2691   20.0251   37.2674 C   0  0  0  0  0  0  0  0  0  0  0  0
   24.2076   19.7003   36.4957 N   0  0  0  0  0  0  0  0  0  0  0  0
 11 12  2  0
 12 13  1  0
 12  1  1  0
  1  2  2  0
  2  3  1  0
  3  4  2  0
  4  5  1  0
  5  6  2  0
  6 17  1  0
 17 18  2  0
 17 19  1  0
 19 21  1  0
 21 22  2  0
 22 23  1  0
 23 24  2  0
 24 27  1  0
 27 28  1  0
 24 25  1  0
 25 26  2  0
  6  7  1  0
  7  8  2  0
  8 31  1  0
 31 33  1  0
 33 34  2  0
 34 35  1  0
 35 36  2  0
 36 37  1  0
 36 38  1  0
 38 39  2  0
  8  9  1  0
  9 10  2  0
 10  1  1  0
  9  4  1  0
 26 21  1  0
 39 33  1  0
 11 14  1  0
 13 15  1  0
 13 16  1  0
 19 20  1  0
 28 29  1  0
 28 30  1  0
 31 32  1  0
M  END
> <minimizedAffinity>
-9.75934

> <CNNscore>
0.7981102467

> <CNNaffinity>
6.9723525047

> <CNN_VS>
5.5647058487

> <CNNaffinity_variance>
0.2059751749

$$$$



 39 42  0  0  0  0  0  0  0  0999 V2000
   27.2599   11.0943   30.0265 C   0  0  0  0  0  0  0  0  0  0  0  0
   27.4821   12.4088   29.6317 C   0  0  0  0  0  0  0  0  0  0  0  0
   26.7152   13.4286   30.1920 C   0  0  0  0  0  0  0  0  0  0  0  0
   25.7164   13.1477   31.1398 C   0  0  0  0  0  0  0  0  0  0  0  0
   24.9852   14.1996   31.7017 C   0  0  0  0  0  0  0  0  0  0  0  0
   24.0061   13.9517   32.6631 C   0  0  0  0  0  0  0  0  0  0  0  0
   23.7157   12.6366   33.0342 C   0  0  0  0  0  0  0  0  0  0  0  0
   24.4116   11.5501   32.4820 C   0  0  0  0  0  0  0  0  0  0  0  0
   25.4551   11.8084   31.5381 C   0  0  0  0  0  0  0  0  0  0  0  0
   26.2632   10.7966   30.9651 C   0  0  0  0  0  0  0  0  0  0  0  0
   28.0640    9.7216   28.1891 N   0  0  0  0  0  0  0  0  0  0  0  0
   28.0746    9.9929   29.4551 C   0  0  0  0  0  0  0  0  0  0  0  0
   28.8657    9.2286   30.2533 N   0  0  0  0  0  0  0  0  0  0  0  0
   28.6151    8.9847   27.8390 H   0  0  0  0  0  0  0  0  0  0  0  0
   29.4017    8.5008   29.8632 H   0  0  0  0  0  0  0  0  0  0  0  0
   28.9027    9.4028   31.2215 H   0  0  0  0  0  0  0  0  0  0  0  0
   23.2747   15.1087   33.2528 C   0  0  0  0  0  0  0  0  0  0  0  0
   23.8054   15.7175   34.1739 O   0  0  0  0  0  0  0  0  0  0  0  0
   22.0264   15.3469   32.7060 N   0  0  0  0  0  0  0  0  0  0  0  0
   21.7316   14.7227   32.0041 H   0  0  0  0  0  0  0  0  0  0  0  0
   21.1280   16.3818   33.0392 C   0  0  0  0  0  0  0  0  0  0  0  0
   21.5182   17.6811   33.3624 C   0  0  0  0  0  0  0  0  0  0  0  0
   20.5614   18.6531   33.6779 C   0  0  0  0  0  0  0  0  0  0  0  0
   19.1965   18.3410   33.6796 C   0  0  0  0  0  0  0  0  0  0  0  0
   18.8050   17.0405   33.3426 C   0  0  0  0  0  0  0  0  0  0  0  0
   19.7627   16.0708   33.0282 C   0  0  0  0  0  0  0  0  0  0  0  0
   18.1691   19.3968   33.9941 C   0  0  0  0  0  0  0  0  0  0  0  0
   18.7191   20.4250   34.8693 N   0  0  0  0  0  0  0  0  0  0  0  0
   19.0125   20.0010   35.7494 H   0  0  0  0  0  0  0  0  0  0  0  0
   18.0068   21.1316   35.0531 H   0  0  0  0  0  0  0  0  0  0  0  0
   24.1455   10.2315   32.9013 N   0  0  0  0  0  0  0  0  0  0  0  0
   23.1861   10.0481   33.0245 H   0  0  0  0  0  0  0  0  0  0  0  0
   24.9559    9.1341   33.1776 C   0  0  0  0  0  0  0  0  0  0  0  0
   24.7500    8.0642   32.3897 N   0  0  0  0  0  0  0  0  0  0  0  0
   25.5269    6.9779   32.5994 C   0  0  0  0  0  0  0  0  0  0  0  0
   26.5034    6.9215   33.5606 C   0  0  0  0  0  0  0  0  0  0  0  0
   27.5662    5.3997   33.8274 Br  0  0  0  0  0  0  0  0  0  0  0  0
   26.6475    8.0600   34.3124 C   0  0  0  0  0  0  0  0  0  0  0  0
   25.8947    9.1697   34.1402 N   0  0  0  0  0  0  0  0  0  0  0  0
 11 12  2  0
 12 13  1  0
 12  1  1  0
  1  2  2  0
  2  3  1  0
  3  4  2  0
  4  5  1  0
  5  6  2  0
  6 17  1  0
 17 18  2  0
 17 19  1  0
 19 21  1  0
 21 22  2  0
 22 23  1  0
 23 24  2  0
 24 27  1  0
 27 28  1  0
 24 25  1  0
 25 26  2  0
  6  7  1  0
  7  8  2  0
  8 31  1  0
 31 33  1  0
 33 34  2  0
 34 35  1  0
 35 36  2  0
 36 37  1  0
 36 38  1  0
 38 39  2  0
  8  9  1  0
  9 10  2  0
 10  1  1  0
  9  4  1  0
 26 21  1  0
 39 33  1  0
 11 14  1  0
 13 15  1  0
 13 16  1  0
 19 20  1  0
 28 29  1  0
 28 30  1  0
 31 32  1  0
M  END
> <minimizedAffinity>
-8.77049

> <CNNscore>
0.5932218432

> <CNNaffinity>
6.9267592430

> <CNN_VS>
4.1091051102

> <CNNaffinity_variance>
0.0501527525

$$$$



 39 42  0  0  0  0  0  0  0  0999 V2000
   25.3780   17.0597   30.5213 C   0  0  0  0  0  0  0  0  0  0  0  0
   26.1352   16.1441   29.7989 C   0  0  0  0  0  0  0  0  0  0  0  0
   26.0672   14.7918   30.1283 C   0  0  0  0  0  0  0  0  0  0  0  0
   25.2550   14.3422   31.1833 C   0  0  0  0  0  0  0  0  0  0  0  0
   25.1902   12.9739   31.4673 C   0  0  0  0  0  0  0  0  0  0  0  0
   24.3729   12.4978   32.4918 C   0  0  0  0  0  0  0  0  0  0  0  0
   23.6487   13.3985   33.2766 C   0  0  0  0  0  0  0  0  0  0  0  0
   23.6989   14.7807   33.0387 C   0  0  0  0  0  0  0  0  0  0  0  0
   24.4930   15.2641   31.9514 C   0  0  0  0  0  0  0  0  0  0  0  0
   24.5686   16.6287   31.5806 C   0  0  0  0  0  0  0  0  0  0  0  0
   26.2848   18.9801   29.3395 N   0  0  0  0  0  0  0  0  0  0  0  0
   25.4221   18.5033   30.1790 C   0  0  0  0  0  0  0  0  0  0  0  0
   24.5472   19.3773   30.7427 N   0  0  0  0  0  0  0  0  0  0  0  0
   26.2900   19.9425   29.1322 H   0  0  0  0  0  0  0  0  0  0  0  0
   24.5857   20.3327   30.5082 H   0  0  0  0  0  0  0  0  0  0  0  0
   23.8748   19.0550   31.3856 H   0  0  0  0  0  0  0  0  0  0  0  0
   24.3162   11.0287   32.7363 C   0  0  0  0  0  0  0  0  0  0  0  0
   23.4599   10.3789   32.1487 O   0  0  0  0  0  0  0  0  0  0  0  0
   25.2360   10.5566   33.6556 N   0  0  0  0  0  0  0  0  0  0  0  0
   25.8183   11.2305   34.0751 H   0  0  0  0  0  0  0  0  0  0  0  0
   25.4347    9.2203   34.0603 C   0  0  0  0  0  0  0  0  0  0  0  0
   25.4400    8.7993   35.3899 C   0  0  0  0  0  0  0  0  0  0  0  0
   25.6404    7.4508   35.7079 C   0  0  0  0  0  0  0  0  0  0  0  0
   25.8433    6.4996   34.7007 C   0  0  0  0  0  0  0  0  0  0  0  0
   25.8250    6.9206   33.3664 C   0  0  0  0  0  0  0  0  0  0  0  0
   25.6251    8.2685   33.0510 C   0  0  0  0  0  0  0  0  0  0  0  0
   26.0325    5.0456   35.0463 C   0  0  0  0  0  0  0  0  0  0  0  0
   25.9291    4.8266   36.4840 N   0  0  0  0  0  0  0  0  0  0  0  0
   26.6555    5.3596   36.9622 H   0  0  0  0  0  0  0  0  0  0  0  0
   26.0471    3.8338   36.6861 H   0  0  0  0  0  0  0  0  0  0  0  0
   22.9248   15.6755   33.8038 N   0  0  0  0  0  0  0  0  0  0  0  0
   23.3132   15.8694   34.6874 H   0  0  0  0  0  0  0  0  0  0  0  0
   21.7256   16.3426   33.5709 C   0  0  0  0  0  0  0  0  0  0  0  0
   21.0184   15.8885   32.5213 N   0  0  0  0  0  0  0  0  0  0  0  0
   19.8333   16.4856   32.2639 C   0  0  0  0  0  0  0  0  0  0  0  0
   19.3258   17.5135   33.0166 C   0  0  0  0  0  0  0  0  0  0  0  0
   17.6773   18.3219   32.6350 Br  0  0  0  0  0  0  0  0  0  0  0  0
   20.1111   17.9070   34.0705 C   0  0  0  0  0  0  0  0  0  0  0  0
   21.3026   17.3409   34.3669 N   0  0  0  0  0  0  0  0  0  0  0  0
 11 12  2  0
 12 13  1  0
 12  1  1  0
  1  2  2  0
  2  3  1  0
  3  4  2  0
  4  5  1  0
  5  6  2  0
  6 17  1  0
 17 18  2  0
 17 19  1  0
 19 21  1  0
 21 22  2  0
 22 23  1  0
 23 24  2  0
 24 27  1  0
 27 28  1  0
 24 25  1  0
 25 26  2  0
  6  7  1  0
  7  8  2  0
  8 31  1  0
 31 33  1  0
 33 34  2  0
 34 35  1  0
 35 36  2  0
 36 37  1  0
 36 38  1  0
 38 39  2  0
  8  9  1  0
  9 10  2  0
 10  1  1  0
  9  4  1  0
 26 21  1  0
 39 33  1  0
 11 14  1  0
 13 15  1  0
 13 16  1  0
 19 20  1  0
 28 29  1  0
 28 30  1  0
 31 32  1  0
M  END
> <minimizedAffinity>
-8.34475

> <CNNscore>
0.1393613070

> <CNNaffinity>
5.7590041161

> <CNN_VS>
0.8025823236

> <CNNaffinity_variance>
0.5788381696

$$$$



 39 42  0  0  0  0  0  0  0  0999 V2000
   31.3468   12.5235   26.9858 C   0  0  0  0  0  0  0  0  0  0  0  0
   31.3278   13.9102   27.0862 C   0  0  0  0  0  0  0  0  0  0  0  0
   30.2532   14.5340   27.7171 C   0  0  0  0  0  0  0  0  0  0  0  0
   29.1866   13.7851   28.2428 C   0  0  0  0  0  0  0  0  0  0  0  0
   28.1383   14.4437   28.8942 C   0  0  0  0  0  0  0  0  0  0  0  0
   27.0802   13.7235   29.4475 C   0  0  0  0  0  0  0  0  0  0  0  0
   27.0388   12.3341   29.3078 C   0  0  0  0  0  0  0  0  0  0  0  0
   28.0596   11.6348   28.6455 C   0  0  0  0  0  0  0  0  0  0  0  0
   29.1734   12.3684   28.1279 C   0  0  0  0  0  0  0  0  0  0  0  0
   30.2878   11.7627   27.4984 C   0  0  0  0  0  0  0  0  0  0  0  0
   33.2553   12.4418   25.4832 N   0  0  0  0  0  0  0  0  0  0  0  0
   32.4881   11.8356   26.3319 C   0  0  0  0  0  0  0  0  0  0  0  0
   32.7650   10.5342   26.6087 N   0  0  0  0  0  0  0  0  0  0  0  0
   34.0049   11.9595   25.0653 H   0  0  0  0  0  0  0  0  0  0  0  0
   33.5246   10.0882   26.1689 H   0  0  0  0  0  0  0  0  0  0  0  0
   32.2061   10.0374   27.2491 H   0  0  0  0  0  0  0  0  0  0  0  0
   26.0020   14.4690   30.1568 C   0  0  0  0  0  0  0  0  0  0  0  0
   24.8432   14.2763   29.8095 O   0  0  0  0  0  0  0  0  0  0  0  0
   26.4459   15.3496   31.1271 N   0  0  0  0  0  0  0  0  0  0  0  0
   27.4215   15.4184   31.2400 H   0  0  0  0  0  0  0  0  0  0  0  0
   25.6605   16.1599   31.9730 C   0  0  0  0  0  0  0  0  0  0  0  0
   25.0902   17.3720   31.5849 C   0  0  0  0  0  0  0  0  0  0  0  0
   24.3186   18.1155   32.4858 C   0  0  0  0  0  0  0  0  0  0  0  0
   24.1072   17.6611   33.7931 C   0  0  0  0  0  0  0  0  0  0  0  0
   24.6689   16.4386   34.1779 C   0  0  0  0  0  0  0  0  0  0  0  0
   25.4399   15.6976   33.2763 C   0  0  0  0  0  0  0  0  0  0  0  0
   23.2546   18.4515   34.7510 C   0  0  0  0  0  0  0  0  0  0  0  0
   23.5743   19.8729   34.6934 N   0  0  0  0  0  0  0  0  0  0  0  0
   24.5505   20.0126   34.9540 H   0  0  0  0  0  0  0  0  0  0  0  0
   22.9732   20.3830   35.3407 H   0  0  0  0  0  0  0  0  0  0  0  0
   28.0330   10.2290   28.5550 N   0  0  0  0  0  0  0  0  0  0  0  0
   28.2632    9.8919   27.6591 H   0  0  0  0  0  0  0  0  0  0  0  0
   27.7492    9.2173   29.4680 C   0  0  0  0  0  0  0  0  0  0  0  0
   28.0757    7.9780   29.0611 N   0  0  0  0  0  0  0  0  0  0  0  0
   27.8431    6.9596   29.9191 C   0  0  0  0  0  0  0  0  0  0  0  0
   27.3028    7.1319   31.1677 C   0  0  0  0  0  0  0  0  0  0  0  0
   26.9923    5.6988   32.3365 Br  0  0  0  0  0  0  0  0  0  0  0  0
   27.0071    8.4296   31.5007 C   0  0  0  0  0  0  0  0  0  0  0  0
   27.2212    9.4800   30.6769 N   0  0  0  0  0  0  0  0  0  0  0  0
 11 12  2  0
 12 13  1  0
 12  1  1  0
  1  2  2  0
  2  3  1  0
  3  4  2  0
  4  5  1  0
  5  6  2  0
  6 17  1  0
 17 18  2  0
 17 19  1  0
 19 21  1  0
 21 22  2  0
 22 23  1  0
 23 24  2  0
 24 27  1  0
 27 28  1  0
 24 25  1  0
 25 26  2  0
  6  7  1  0
  7  8  2  0
  8 31  1  0
 31 33  1  0
 33 34  2  0
 34 35  1  0
 35 36  2  0
 36 37  1  0
 36 38  1  0
 38 39  2  0
  8  9  1  0
  9 10  2  0
 10  1  1  0
  9  4  1  0
 26 21  1  0
 39 33  1  0
 11 14  1  0
 13 15  1  0
 13 16  1  0
 19 20  1  0
 28 29  1  0
 28 30  1  0
 31 32  1  0
M  END
> <minimizedAffinity>
-6.32017

> <CNNscore>
0.1374208629

> <CNNaffinity>
5.1059050560

> <CNN_VS>
0.7016578913

> <CNNaffinity_variance>
0.3934720755

$$$$



 39 42  0  0  0  0  0  0  0  0999 V2000
   25.0649   17.0253   30.5186 C   0  0  0  0  0  0  0  0  0  0  0  0
   25.8532   16.1295   29.8049 C   0  0  0  0  0  0  0  0  0  0  0  0
   25.8457   14.7817   30.1589 C   0  0  0  0  0  0  0  0  0  0  0  0
   25.0634   14.3175   31.2300 C   0  0  0  0  0  0  0  0  0  0  0  0
   25.0592   12.9532   31.5390 C   0  0  0  0  0  0  0  0  0  0  0  0
   24.2726   12.4617   32.5802 C   0  0  0  0  0  0  0  0  0  0  0  0
   23.5186   13.3453   33.3563 C   0  0  0  0  0  0  0  0  0  0  0  0
   23.5080   14.7238   33.0934 C   0  0  0  0  0  0  0  0  0  0  0  0
   24.2704   15.2204   31.9895 C   0  0  0  0  0  0  0  0  0  0  0  0
   24.2847   16.5799   31.5938 C   0  0  0  0  0  0  0  0  0  0  0  0
   24.0797   19.2471   30.5119 N   0  0  0  0  0  0  0  0  0  0  0  0
   25.0446   18.4631   30.1504 C   0  0  0  0  0  0  0  0  0  0  0  0
   26.0507   19.0054   29.4150 N   0  0  0  0  0  0  0  0  0  0  0  0
   24.0936   20.1967   30.2526 H   0  0  0  0  0  0  0  0  0  0  0  0
   26.0266   19.9603   29.1766 H   0  0  0  0  0  0  0  0  0  0  0  0
   26.8035   18.4434   29.1206 H   0  0  0  0  0  0  0  0  0  0  0  0
   24.2804   10.9962   32.8513 C   0  0  0  0  0  0  0  0  0  0  0  0
   23.2610   10.4876   33.3016 O   0  0  0  0  0  0  0  0  0  0  0  0
   25.4841   10.3643   32.5951 N   0  0  0  0  0  0  0  0  0  0  0  0
   26.2209   10.9389   32.2848 H   0  0  0  0  0  0  0  0  0  0  0  0
   25.7764    8.9909   32.7277 C   0  0  0  0  0  0  0  0  0  0  0  0
   26.5222    8.2583   31.8046 C   0  0  0  0  0  0  0  0  0  0  0  0
   26.7718    6.8966   32.0128 C   0  0  0  0  0  0  0  0  0  0  0  0
   26.2757    6.2424   33.1469 C   0  0  0  0  0  0  0  0  0  0  0  0
   25.5384    6.9810   34.0791 C   0  0  0  0  0  0  0  0  0  0  0  0
   25.2898    8.3413   33.8689 C   0  0  0  0  0  0  0  0  0  0  0  0
   26.5688    4.7833   33.3799 C   0  0  0  0  0  0  0  0  0  0  0  0
   27.1893    4.1756   32.2088 N   0  0  0  0  0  0  0  0  0  0  0  0
   26.5547    4.2448   31.4133 H   0  0  0  0  0  0  0  0  0  0  0  0
   27.3884    3.1938   32.4005 H   0  0  0  0  0  0  0  0  0  0  0  0
   22.7041   15.5990   33.8504 N   0  0  0  0  0  0  0  0  0  0  0  0
   23.0537   15.7641   34.7559 H   0  0  0  0  0  0  0  0  0  0  0  0
   21.5189   16.2789   33.5852 C   0  0  0  0  0  0  0  0  0  0  0  0
   21.3176   17.3799   34.3304 N   0  0  0  0  0  0  0  0  0  0  0  0
   20.1924   18.0920   34.0976 C   0  0  0  0  0  0  0  0  0  0  0  0
   19.2648   17.7501   33.1471 C   0  0  0  0  0  0  0  0  0  0  0  0
   17.7128   18.7588   32.8466 Br  0  0  0  0  0  0  0  0  0  0  0  0
   19.5553   16.6168   32.4305 C   0  0  0  0  0  0  0  0  0  0  0  0
   20.6667   15.8724   32.6273 N   0  0  0  0  0  0  0  0  0  0  0  0
 11 12  2  0
 12 13  1  0
 12  1  1  0
  1  2  2  0
  2  3  1  0
  3  4  2  0
  4  5  1  0
  5  6  2  0
  6 17  1  0
 17 18  2  0
 17 19  1  0
 19 21  1  0
 21 22  2  0
 22 23  1  0
 23 24  2  0
 24 27  1  0
 27 28  1  0
 24 25  1  0
 25 26  2  0
  6  7  1  0
  7  8  2  0
  8 31  1  0
 31 33  1  0
 33 34  2  0
 34 35  1  0
 35 36  2  0
 36 37  1  0
 36 38  1  0
 38 39  2  0
  8  9  1  0
  9 10  2  0
 10  1  1  0
  9  4  1  0
 26 21  1  0
 39 33  1  0
 11 14  1  0
 13 15  1  0
 13 16  1  0
 19 20  1  0
 28 29  1  0
 28 30  1  0
 31 32  1  0
M  END
> <minimizedAffinity>
-8.95376

> <CNNscore>
0.1326611042

> <CNNaffinity>
5.9422459602

> <CNN_VS>
0.7883049250

> <CNNaffinity_variance>
0.4458197653

$$$$



 39 42  0  0  0  0  0  0  0  0999 V2000
   20.5869   17.2359   33.4620 C   0  0  0  0  0  0  0  0  0  0  0  0
   21.0322   18.3452   34.1721 C   0  0  0  0  0  0  0  0  0  0  0  0
   22.3433   18.3722   34.6438 C   0  0  0  0  0  0  0  0  0  0  0  0
   23.2162   17.2936   34.4218 C   0  0  0  0  0  0  0  0  0  0  0  0
   24.5339   17.3677   34.8858 C   0  0  0  0  0  0  0  0  0  0  0  0
   25.4286   16.3229   34.6571 C   0  0  0  0  0  0  0  0  0  0  0  0
   24.9936   15.1682   34.0022 C   0  0  0  0  0  0  0  0  0  0  0  0
   23.6754   15.0437   33.5367 C   0  0  0  0  0  0  0  0  0  0  0  0
   22.7736   16.1388   33.7210 C   0  0  0  0  0  0  0  0  0  0  0  0
   21.4424   16.1491   33.2383 C   0  0  0  0  0  0  0  0  0  0  0  0
   18.2277   17.8173   33.5193 N   0  0  0  0  0  0  0  0  0  0  0  0
   19.1994   17.1908   32.9364 C   0  0  0  0  0  0  0  0  0  0  0  0
   18.9050   16.4829   31.8143 N   0  0  0  0  0  0  0  0  0  0  0  0
   17.3175   17.7689   33.1473 H   0  0  0  0  0  0  0  0  0  0  0  0
   17.9811   16.4602   31.4748 H   0  0  0  0  0  0  0  0  0  0  0  0
   19.6156   15.9929   31.3407 H   0  0  0  0  0  0  0  0  0  0  0  0
   26.8296   16.4620   35.1461 C   0  0  0  0  0  0  0  0  0  0  0  0
   27.7191   16.6014   34.3154 O   0  0  0  0  0  0  0  0  0  0  0  0
   26.9773   16.3752   36.5188 N   0  0  0  0  0  0  0  0  0  0  0  0
   26.1565   16.2073   37.0359 H   0  0  0  0  0  0  0  0  0  0  0  0
   28.1694   16.4997   37.2622 C   0  0  0  0  0  0  0  0  0  0  0  0
   29.3911   15.9479   36.8775 C   0  0  0  0  0  0  0  0  0  0  0  0
   30.5311   16.1215   37.6715 C   0  0  0  0  0  0  0  0  0  0  0  0
   30.4678   16.8472   38.8671 C   0  0  0  0  0  0  0  0  0  0  0  0
   29.2447   17.4116   39.2458 C   0  0  0  0  0  0  0  0  0  0  0  0
   28.1069   17.2365   38.4514 C   0  0  0  0  0  0  0  0  0  0  0  0
   31.7027   17.0536   39.7048 C   0  0  0  0  0  0  0  0  0  0  0  0
   32.1461   18.4418   39.6591 N   0  0  0  0  0  0  0  0  0  0  0  0
   32.3737   18.6945   38.6975 H   0  0  0  0  0  0  0  0  0  0  0  0
   32.9734   18.5539   40.2451 H   0  0  0  0  0  0  0  0  0  0  0  0
   23.2617   13.8956   32.8326 N   0  0  0  0  0  0  0  0  0  0  0  0
   22.5617   14.0792   32.1650 H   0  0  0  0  0  0  0  0  0  0  0  0
   23.6362   12.5559   32.8838 C   0  0  0  0  0  0  0  0  0  0  0  0
   22.8248   11.7675   33.6104 N   0  0  0  0  0  0  0  0  0  0  0  0
   23.1289   10.4519   33.6745 C   0  0  0  0  0  0  0  0  0  0  0  0
   24.2075    9.8938   33.0374 C   0  0  0  0  0  0  0  0  0  0  0  0
   24.6035    8.0640   33.1445 Br  0  0  0  0  0  0  0  0  0  0  0  0
   24.9754   10.7711   32.3144 C   0  0  0  0  0  0  0  0  0  0  0  0
   24.7115   12.0939   32.2210 N   0  0  0  0  0  0  0  0  0  0  0  0
 11 12  2  0
 12 13  1  0
 12  1  1  0
  1  2  2  0
  2  3  1  0
  3  4  2  0
  4  5  1  0
  5  6  2  0
  6 17  1  0
 17 18  2  0
 17 19  1  0
 19 21  1  0
 21 22  2  0
 22 23  1  0
 23 24  2  0
 24 27  1  0
 27 28  1  0
 24 25  1  0
 25 26  2  0
  6  7  1  0
  7  8  2  0
  8 31  1  0
 31 33  1  0
 33 34  2  0
 34 35  1  0
 35 36  2  0
 36 37  1  0
 36 38  1  0
 38 39  2  0
  8  9  1  0
  9 10  2  0
 10  1  1  0
  9  4  1  0
 26 21  1  0
 39 33  1  0
 11 14  1  0
 13 15  1  0
 13 16  1  0
 19 20  1  0
 28 29  1  0
 28 30  1  0
 31 32  1  0
M  END
> <minimizedAffinity>
-7.00705

> <CNNscore>
0.1304905117

> <CNNaffinity>
5.5699687004

> <CNN_VS>
0.7268280387

> <CNNaffinity_variance>
0.5170285702

$$$$



 39 42  0  0  0  0  0  0  0  0999 V2000
   29.6364   11.9504   25.4776 C   0  0  0  0  0  0  0  0  0  0  0  0
   28.4179   11.3094   25.6723 C   0  0  0  0  0  0  0  0  0  0  0  0
   27.5851   11.7270   26.7087 C   0  0  0  0  0  0  0  0  0  0  0  0
   27.9620   12.7764   27.5639 C   0  0  0  0  0  0  0  0  0  0  0  0
   27.0881   13.1872   28.5761 C   0  0  0  0  0  0  0  0  0  0  0  0
   27.4257   14.2426   29.4226 C   0  0  0  0  0  0  0  0  0  0  0  0
   28.6696   14.8650   29.2930 C   0  0  0  0  0  0  0  0  0  0  0  0
   29.5845   14.4725   28.3037 C   0  0  0  0  0  0  0  0  0  0  0  0
   29.2146   13.4279   27.3989 C   0  0  0  0  0  0  0  0  0  0  0  0
   30.0302   12.9937   26.3259 C   0  0  0  0  0  0  0  0  0  0  0  0
   30.2145   11.7132   23.1290 N   0  0  0  0  0  0  0  0  0  0  0  0
   30.5334   11.5335   24.3709 C   0  0  0  0  0  0  0  0  0  0  0  0
   31.7302   10.9448   24.6319 N   0  0  0  0  0  0  0  0  0  0  0  0
   30.8301   11.4262   22.4162 H   0  0  0  0  0  0  0  0  0  0  0  0
   32.3170   10.6724   23.8898 H   0  0  0  0  0  0  0  0  0  0  0  0
   32.0104   10.7908   25.5630 H   0  0  0  0  0  0  0  0  0  0  0  0
   26.4484   14.6617   30.4669 C   0  0  0  0  0  0  0  0  0  0  0  0
   26.6308   14.2763   31.6153 O   0  0  0  0  0  0  0  0  0  0  0  0
   25.3934   15.4264   30.0020 N   0  0  0  0  0  0  0  0  0  0  0  0
   25.3741   15.5995   29.0330 H   0  0  0  0  0  0  0  0  0  0  0  0
   24.3424   15.9864   30.7576 C   0  0  0  0  0  0  0  0  0  0  0  0
   23.1553   15.3193   31.0587 C   0  0  0  0  0  0  0  0  0  0  0  0
   22.1611   15.9456   31.8199 C   0  0  0  0  0  0  0  0  0  0  0  0
   22.3356   17.2528   32.2900 C   0  0  0  0  0  0  0  0  0  0  0  0
   23.5324   17.9168   31.9984 C   0  0  0  0  0  0  0  0  0  0  0  0
   24.5241   17.2893   31.2374 C   0  0  0  0  0  0  0  0  0  0  0  0
   21.2743   17.9133   33.1306 C   0  0  0  0  0  0  0  0  0  0  0  0
   21.3332   17.4533   34.5129 N   0  0  0  0  0  0  0  0  0  0  0  0
   21.1753   16.4460   34.5430 H   0  0  0  0  0  0  0  0  0  0  0  0
   20.6140   17.9267   35.0597 H   0  0  0  0  0  0  0  0  0  0  0  0
   30.8151   15.1411   28.1494 N   0  0  0  0  0  0  0  0  0  0  0  0
   31.5260   14.7878   28.7316 H   0  0  0  0  0  0  0  0  0  0  0  0
   31.2353   16.1970   27.3456 C   0  0  0  0  0  0  0  0  0  0  0  0
   32.0058   15.8436   26.3019 N   0  0  0  0  0  0  0  0  0  0  0  0
   32.4227   16.8279   25.4744 C   0  0  0  0  0  0  0  0  0  0  0  0
   32.0957   18.1486   25.6462 C   0  0  0  0  0  0  0  0  0  0  0  0
   32.6891   19.4922   24.4804 Br  0  0  0  0  0  0  0  0  0  0  0  0
   31.3014   18.4157   26.7324 C   0  0  0  0  0  0  0  0  0  0  0  0
   30.8603   17.4659   27.5875 N   0  0  0  0  0  0  0  0  0  0  0  0
 11 12  2  0
 12 13  1  0
 12  1  1  0
  1  2  2  0
  2  3  1  0
  3  4  2  0
  4  5  1  0
  5  6  2  0
  6 17  1  0
 17 18  2  0
 17 19  1  0
 19 21  1  0
 21 22  2  0
 22 23  1  0
 23 24  2  0
 24 27  1  0
 27 28  1  0
 24 25  1  0
 25 26  2  0
  6  7  1  0
  7  8  2  0
  8 31  1  0
 31 33  1  0
 33 34  2  0
 34 35  1  0
 35 36  2  0
 36 37  1  0
 36 38  1  0
 38 39  2  0
  8  9  1  0
  9 10  2  0
 10  1  1  0
  9  4  1  0
 26 21  1  0
 39 33  1  0
 11 14  1  0
 13 15  1  0
 13 16  1  0
 19 20  1  0
 28 29  1  0
 28 30  1  0
 31 32  1  0
M  END
> <minimizedAffinity>
-6.07909

> <CNNscore>
0.1164172515

> <CNNaffinity>
5.9756927490

> <CNN_VS>
0.6956737041

> <CNNaffinity_variance>
0.0874224976

$$$$
