


 28 29  0  0  0  0  0  0  0  0999 V2000
   29.3939   23.9351   -0.4796 C   0  0  0  0  0  0  0  0  0  0  0  0
   30.2461   24.3236    0.4880 C   0  0  0  0  0  0  0  0  0  0  0  0
   30.4364   23.6416    1.8182 C   0  0  0  0  0  0  0  0  0  0  0  0
   31.6656   22.9270    1.7116 O   0  0  0  0  0  0  0  0  0  0  0  0
   29.3096   22.6670    2.1484 C   0  0  0  0  0  0  0  0  0  0  0  0
   28.9788   21.8009    0.9470 C   0  0  0  0  0  0  0  0  0  0  0  0
   27.8924   20.9453    1.2945 O   0  0  0  0  0  0  0  0  0  0  0  0
   28.6188   22.6690   -0.2596 C   0  0  0  0  0  0  0  0  0  0  0  0
   27.7428   22.3155   -1.0494 O   0  0  0  0  0  0  0  0  0  0  0  0
   32.3824   23.5459    1.5017 H   0  0  0  0  0  0  0  0  0  0  0  0
   27.1226   21.4829    1.5379 H   0  0  0  0  0  0  0  0  0  0  0  0
   30.5122   24.6973    2.9489 C   0  0  0  0  0  0  0  0  0  0  0  0
   31.1410   25.7422    2.9577 O   0  0  0  0  0  0  0  0  0  0  0  0
   29.7420   24.3483    4.0091 O   0  0  0  0  0  0  0  0  0  0  0  0
   29.2618   23.5439    3.9948 H   0  0  0  0  0  0  0  0  0  0  0  0
   29.1411   24.6289   -1.7995 C   0  0  0  0  0  0  0  0  0  0  0  0
   30.0147   25.8498   -2.1004 C   0  0  0  0  0  0  0  0  0  0  0  0
   28.4460   26.8261   -3.6445 O   0  0  0  0  0  0  0  0  0  0  0  0
   29.2133   26.9926   -2.7050 C   0  0  0  0  0  0  0  0  0  0  0  0
   29.4829   28.1923   -2.0634 N   0  0  0  0  0  0  0  0  0  0  0  0
   30.1311   28.1540   -1.3233 H   0  0  0  0  0  0  0  0  0  0  0  0
   28.9362   29.4605   -2.3483 C   0  0  0  0  0  0  0  0  0  0  0  0
   29.3343   30.6436   -1.7213 C   0  0  0  0  0  0  0  0  0  0  0  0
   28.7394   31.8643   -2.0623 C   0  0  0  0  0  0  0  0  0  0  0  0
   27.7433   31.9057   -3.0330 C   0  0  0  0  0  0  0  0  0  0  0  0
   27.0129   33.4053   -3.4512 Cl  0  0  0  0  0  0  0  0  0  0  0  0
   27.3357   30.7358   -3.6667 C   0  0  0  0  0  0  0  0  0  0  0  0
   27.9313   29.5176   -3.3246 C   0  0  0  0  0  0  0  0  0  0  0  0
 18 19  2  0
 19 17  1  0
 17 16  1  0
 16  1  1  0
  1  2  2  0
  2  3  1  0
  3  4  1  0
  3 12  1  0
 12 13  2  0
 12 14  1  0
  3  5  1  0
  5  6  1  0
  6  7  1  0
  6  8  1  0
  8  9  2  0
 19 20  1  0
 20 22  1  0
 22 23  2  0
 23 24  1  0
 24 25  2  0
 25 26  1  0
 25 27  1  0
 27 28  2  0
  8  1  1  0
 28 22  1  0
  4 10  1  0
 14 15  1  0
  7 11  1  0
 20 21  1  0
M  END
> <minimizedAffinity>
-10.68779

> <CNNscore>
0.8836531639

> <CNNaffinity>
6.5237431526

> <CNN_VS>
5.7647261620

> <CNNaffinity_variance>
0.0059856647

$$$$



 28 29  0  0  0  0  0  0  0  0999 V2000
   30.0728   24.7675   -0.0243 C   0  0  0  0  0  0  0  0  0  0  0  0
   29.2505   23.7203    0.1779 C   0  0  0  0  0  0  0  0  0  0  0  0
   29.0756   22.9775    1.4773 C   0  0  0  0  0  0  0  0  0  0  0  0
   27.8297   23.4219    2.0096 O   0  0  0  0  0  0  0  0  0  0  0  0
   30.1889   23.2702    2.4791 C   0  0  0  0  0  0  0  0  0  0  0  0
   30.4748   24.7592    2.5449 C   0  0  0  0  0  0  0  0  0  0  0  0
   31.5506   24.9709    3.4565 O   0  0  0  0  0  0  0  0  0  0  0  0
   30.8259   25.3017    1.1587 C   0  0  0  0  0  0  0  0  0  0  0  0
   31.6767   26.1818    1.0250 O   0  0  0  0  0  0  0  0  0  0  0  0
   27.1215   23.2361    1.3733 H   0  0  0  0  0  0  0  0  0  0  0  0
   32.3367   24.4956    3.1449 H   0  0  0  0  0  0  0  0  0  0  0  0
   29.0470   21.4513    1.2155 C   0  0  0  0  0  0  0  0  0  0  0  0
   29.9948   20.6907    1.1127 O   0  0  0  0  0  0  0  0  0  0  0  0
   27.7769   20.9851    1.1227 O   0  0  0  0  0  0  0  0  0  0  0  0
   27.0540   21.5758    1.2027 H   0  0  0  0  0  0  0  0  0  0  0  0
   30.3106   25.4971   -1.3275 C   0  0  0  0  0  0  0  0  0  0  0  0
   29.3120   25.2144   -2.4532 C   0  0  0  0  0  0  0  0  0  0  0  0
   27.9423   26.4886   -3.9694 O   0  0  0  0  0  0  0  0  0  0  0  0
   28.6831   26.4893   -2.9945 C   0  0  0  0  0  0  0  0  0  0  0  0
   29.0696   27.5962   -2.2536 N   0  0  0  0  0  0  0  0  0  0  0  0
   29.6758   27.4237   -1.4973 H   0  0  0  0  0  0  0  0  0  0  0  0
   28.6948   28.9402   -2.4582 C   0  0  0  0  0  0  0  0  0  0  0  0
   29.3679   30.0333   -1.9073 C   0  0  0  0  0  0  0  0  0  0  0  0
   28.9300   31.3390   -2.1596 C   0  0  0  0  0  0  0  0  0  0  0  0
   27.8162   31.5559   -2.9648 C   0  0  0  0  0  0  0  0  0  0  0  0
   27.2787   33.1598   -3.2741 Cl  0  0  0  0  0  0  0  0  0  0  0  0
   27.1349   30.4775   -3.5209 C   0  0  0  0  0  0  0  0  0  0  0  0
   27.5741   29.1741   -3.2678 C   0  0  0  0  0  0  0  0  0  0  0  0
 18 19  2  0
 19 17  1  0
 17 16  1  0
 16  1  1  0
  1  2  2  0
  2  3  1  0
  3  4  1  0
  3 12  1  0
 12 13  2  0
 12 14  1  0
  3  5  1  0
  5  6  1  0
  6  7  1  0
  6  8  1  0
  8  9  2  0
 19 20  1  0
 20 22  1  0
 22 23  2  0
 23 24  1  0
 24 25  2  0
 25 26  1  0
 25 27  1  0
 27 28  2  0
  8  1  1  0
 28 22  1  0
  4 10  1  0
 14 15  1  0
  7 11  1  0
 20 21  1  0
M  END
> <minimizedAffinity>
-9.67816

> <CNNscore>
0.5586619973

> <CNNaffinity>
5.9159569740

> <CNN_VS>
3.3050203323

> <CNNaffinity_variance>
0.2527989447

$$$$



 28 29  0  0  0  0  0  0  0  0999 V2000
   30.3631   24.6909    1.0449 C   0  0  0  0  0  0  0  0  0  0  0  0
   29.6329   23.7658    0.3932 C   0  0  0  0  0  0  0  0  0  0  0  0
   28.8441   22.6547    1.0366 C   0  0  0  0  0  0  0  0  0  0  0  0
   27.4792   23.0612    0.9657 O   0  0  0  0  0  0  0  0  0  0  0  0
   29.2301   22.4247    2.4950 C   0  0  0  0  0  0  0  0  0  0  0  0
   29.3349   23.7440    3.2377 C   0  0  0  0  0  0  0  0  0  0  0  0
   29.7428   23.4751    4.5773 O   0  0  0  0  0  0  0  0  0  0  0  0
   30.3322   24.6739    2.5452 C   0  0  0  0  0  0  0  0  0  0  0  0
   31.0613   25.4163    3.2036 O   0  0  0  0  0  0  0  0  0  0  0  0
   27.2332   23.2076    0.0390 H   0  0  0  0  0  0  0  0  0  0  0  0
   30.6043   23.0294    4.5696 H   0  0  0  0  0  0  0  0  0  0  0  0
   29.0633   21.3317    0.2620 C   0  0  0  0  0  0  0  0  0  0  0  0
   29.8664   20.4462    0.5033 O   0  0  0  0  0  0  0  0  0  0  0  0
   28.2047   21.2168   -0.7814 O   0  0  0  0  0  0  0  0  0  0  0  0
   27.5906   21.9016   -0.9604 H   0  0  0  0  0  0  0  0  0  0  0  0
   31.2079   25.7820    0.4261 C   0  0  0  0  0  0  0  0  0  0  0  0
   30.5234   27.1370    0.2270 C   0  0  0  0  0  0  0  0  0  0  0  0
   29.5588   26.2045   -1.7726 O   0  0  0  0  0  0  0  0  0  0  0  0
   29.7256   27.1911   -1.0670 C   0  0  0  0  0  0  0  0  0  0  0  0
   29.2503   28.4706   -1.3132 N   0  0  0  0  0  0  0  0  0  0  0  0
   29.4770   29.1556   -0.6434 H   0  0  0  0  0  0  0  0  0  0  0  0
   28.4800   28.9041   -2.4120 C   0  0  0  0  0  0  0  0  0  0  0  0
   27.6408   28.0719   -3.1568 C   0  0  0  0  0  0  0  0  0  0  0  0
   26.9088   28.5819   -4.2358 C   0  0  0  0  0  0  0  0  0  0  0  0
   27.0137   29.9276   -4.5738 C   0  0  0  0  0  0  0  0  0  0  0  0
   26.1146   30.5533   -5.8993 Cl  0  0  0  0  0  0  0  0  0  0  0  0
   27.8455   30.7694   -3.8416 C   0  0  0  0  0  0  0  0  0  0  0  0
   28.5757   30.2579   -2.7641 C   0  0  0  0  0  0  0  0  0  0  0  0
 18 19  2  0
 19 17  1  0
 17 16  1  0
 16  1  1  0
  1  2  2  0
  2  3  1  0
  3  4  1  0
  3 12  1  0
 12 13  2  0
 12 14  1  0
  3  5  1  0
  5  6  1  0
  6  7  1  0
  6  8  1  0
  8  9  2  0
 19 20  1  0
 20 22  1  0
 22 23  2  0
 23 24  1  0
 24 25  2  0
 25 26  1  0
 25 27  1  0
 27 28  2  0
  8  1  1  0
 28 22  1  0
  4 10  1  0
 14 15  1  0
  7 11  1  0
 20 21  1  0
M  END
> <minimizedAffinity>
-6.41747

> <CNNscore>
0.5214461684

> <CNNaffinity>
5.6694626808

> <CNN_VS>
2.9563195705

> <CNNaffinity_variance>
0.1740699261

$$$$



 28 29  0  0  0  0  0  0  0  0999 V2000
   18.5264   27.2051   -0.8597 C   0  0  0  0  0  0  0  0  0  0  0  0
   18.9489   26.1690   -1.6091 C   0  0  0  0  0  0  0  0  0  0  0  0
   19.5252   24.8801   -1.0826 C   0  0  0  0  0  0  0  0  0  0  0  0
   18.4877   23.9114   -1.2181 O   0  0  0  0  0  0  0  0  0  0  0  0
   19.9430   24.9750    0.3820 C   0  0  0  0  0  0  0  0  0  0  0  0
   18.8674   25.6605    1.2043 C   0  0  0  0  0  0  0  0  0  0  0  0
   19.3277   25.7649    2.5498 O   0  0  0  0  0  0  0  0  0  0  0  0
   18.5515   27.0431    0.6321 C   0  0  0  0  0  0  0  0  0  0  0  0
   18.2865   27.9866    1.3776 O   0  0  0  0  0  0  0  0  0  0  0  0
   18.2217   23.8505   -2.1489 H   0  0  0  0  0  0  0  0  0  0  0  0
   20.1453   26.2865    2.5722 H   0  0  0  0  0  0  0  0  0  0  0  0
   20.7660   24.4749   -1.9161 C   0  0  0  0  0  0  0  0  0  0  0  0
   20.7975   23.8135   -2.9403 O   0  0  0  0  0  0  0  0  0  0  0  0
   21.9090   24.9738   -1.3834 O   0  0  0  0  0  0  0  0  0  0  0  0
   21.8766   25.4811   -0.5963 H   0  0  0  0  0  0  0  0  0  0  0  0
   17.9958   28.5304   -1.3591 C   0  0  0  0  0  0  0  0  0  0  0  0
   19.0181   29.6626   -1.4897 C   0  0  0  0  0  0  0  0  0  0  0  0
   17.3664   31.2758   -0.8057 O   0  0  0  0  0  0  0  0  0  0  0  0
   18.3590   31.0335   -1.4803 C   0  0  0  0  0  0  0  0  0  0  0  0
   19.0200   31.9166   -2.3210 N   0  0  0  0  0  0  0  0  0  0  0  0
   19.8048   31.5601   -2.7965 H   0  0  0  0  0  0  0  0  0  0  0  0
   18.6981   33.2662   -2.5733 C   0  0  0  0  0  0  0  0  0  0  0  0
   18.1163   33.7240   -3.7580 C   0  0  0  0  0  0  0  0  0  0  0  0
   17.8281   35.0833   -3.9297 C   0  0  0  0  0  0  0  0  0  0  0  0
   18.1212   35.9902   -2.9160 C   0  0  0  0  0  0  0  0  0  0  0  0
   17.7672   37.6596   -3.1277 Cl  0  0  0  0  0  0  0  0  0  0  0  0
   18.7008   35.5498   -1.7301 C   0  0  0  0  0  0  0  0  0  0  0  0
   18.9878   34.1916   -1.5605 C   0  0  0  0  0  0  0  0  0  0  0  0
 18 19  2  0
 19 17  1  0
 17 16  1  0
 16  1  1  0
  1  2  2  0
  2  3  1  0
  3  4  1  0
  3 12  1  0
 12 13  2  0
 12 14  1  0
  3  5  1  0
  5  6  1  0
  6  7  1  0
  6  8  1  0
  8  9  2  0
 19 20  1  0
 20 22  1  0
 22 23  2  0
 23 24  1  0
 24 25  2  0
 25 26  1  0
 25 27  1  0
 27 28  2  0
  8  1  1  0
 28 22  1  0
  4 10  1  0
 14 15  1  0
  7 11  1  0
 20 21  1  0
M  END
> <minimizedAffinity>
-5.77763

> <CNNscore>
0.3481719196

> <CNNaffinity>
4.5098233223

> <CNN_VS>
1.5701938868

> <CNNaffinity_variance>
0.5915874243

$$$$



 28 29  0  0  0  0  0  0  0  0999 V2000
   20.7667   26.0304    7.5919 C   0  0  0  0  0  0  0  0  0  0  0  0
   20.4238   27.0475    8.4052 C   0  0  0  0  0  0  0  0  0  0  0  0
   20.0584   28.4413    7.9644 C   0  0  0  0  0  0  0  0  0  0  0  0
   18.6399   28.5230    8.0840 O   0  0  0  0  0  0  0  0  0  0  0  0
   20.4635   28.7294    6.5216 C   0  0  0  0  0  0  0  0  0  0  0  0
   20.0805   27.5742    5.6150 C   0  0  0  0  0  0  0  0  0  0  0  0
   20.5227   27.8740    4.2930 O   0  0  0  0  0  0  0  0  0  0  0  0
   20.7059   26.2699    6.1116 C   0  0  0  0  0  0  0  0  0  0  0  0
   21.1116   25.4237    5.3144 O   0  0  0  0  0  0  0  0  0  0  0  0
   18.3817   28.3400    9.0010 H   0  0  0  0  0  0  0  0  0  0  0  0
   21.4857   27.9906    4.2928 H   0  0  0  0  0  0  0  0  0  0  0  0
   20.7468   29.4841    8.8794 C   0  0  0  0  0  0  0  0  0  0  0  0
   21.2684   29.2992    9.9661 O   0  0  0  0  0  0  0  0  0  0  0  0
   20.7419   30.7192    8.3194 O   0  0  0  0  0  0  0  0  0  0  0  0
   20.3391   30.8532    7.4840 H   0  0  0  0  0  0  0  0  0  0  0  0
   21.1910   24.6393    8.0066 C   0  0  0  0  0  0  0  0  0  0  0  0
   22.2333   24.5549    9.1249 C   0  0  0  0  0  0  0  0  0  0  0  0
   24.2230   24.8345    7.7977 O   0  0  0  0  0  0  0  0  0  0  0  0
   23.5434   25.2244    8.7387 C   0  0  0  0  0  0  0  0  0  0  0  0
   23.8361   26.2849    9.5833 N   0  0  0  0  0  0  0  0  0  0  0  0
   23.1823   26.4664   10.2966 H   0  0  0  0  0  0  0  0  0  0  0  0
   24.9617   27.1332    9.5386 C   0  0  0  0  0  0  0  0  0  0  0  0
   26.1988   26.8232   10.1086 C   0  0  0  0  0  0  0  0  0  0  0  0
   27.2680   27.7227   10.0201 C   0  0  0  0  0  0  0  0  0  0  0  0
   27.1033   28.9366    9.3602 C   0  0  0  0  0  0  0  0  0  0  0  0
   28.4169   30.0410    9.2520 Cl  0  0  0  0  0  0  0  0  0  0  0  0
   25.8771   29.2599    8.7872 C   0  0  0  0  0  0  0  0  0  0  0  0
   24.8104   28.3600    8.8766 C   0  0  0  0  0  0  0  0  0  0  0  0
 18 19  2  0
 19 17  1  0
 17 16  1  0
 16  1  1  0
  1  2  2  0
  2  3  1  0
  3  4  1  0
  3 12  1  0
 12 13  2  0
 12 14  1  0
  3  5  1  0
  5  6  1  0
  6  7  1  0
  6  8  1  0
  8  9  2  0
 19 20  1  0
 20 22  1  0
 22 23  2  0
 23 24  1  0
 24 25  2  0
 25 26  1  0
 25 27  1  0
 27 28  2  0
  8  1  1  0
 28 22  1  0
  4 10  1  0
 14 15  1  0
  7 11  1  0
 20 21  1  0
M  END
> <minimizedAffinity>
-4.72973

> <CNNscore>
0.2702015638

> <CNNaffinity>
3.3232097626

> <CNN_VS>
0.8979364634

> <CNNaffinity_variance>
0.9015869498

$$$$



 28 29  0  0  0  0  0  0  0  0999 V2000
   20.2143   26.2883   -0.2951 C   0  0  0  0  0  0  0  0  0  0  0  0
   20.6011   25.9215    0.9416 C   0  0  0  0  0  0  0  0  0  0  0  0
   19.7946   25.0893    1.9048 C   0  0  0  0  0  0  0  0  0  0  0  0
   20.3813   23.7900    1.8750 O   0  0  0  0  0  0  0  0  0  0  0  0
   18.3234   24.9911    1.5115 C   0  0  0  0  0  0  0  0  0  0  0  0
   18.1817   24.6989    0.0291 C   0  0  0  0  0  0  0  0  0  0  0  0
   16.7929   24.6650   -0.2921 O   0  0  0  0  0  0  0  0  0  0  0  0
   18.9027   25.7625   -0.8005 C   0  0  0  0  0  0  0  0  0  0  0  0
   18.4361   26.1459   -1.8735 O   0  0  0  0  0  0  0  0  0  0  0  0
   21.3165   23.8518    2.1249 H   0  0  0  0  0  0  0  0  0  0  0  0
   16.3917   25.5230   -0.0833 H   0  0  0  0  0  0  0  0  0  0  0  0
   19.8774   25.6960    3.3273 C   0  0  0  0  0  0  0  0  0  0  0  0
   18.9576   25.9722    4.0789 O   0  0  0  0  0  0  0  0  0  0  0  0
   21.1631   25.8926    3.7114 O   0  0  0  0  0  0  0  0  0  0  0  0
   21.8643   25.6778    3.1282 H   0  0  0  0  0  0  0  0  0  0  0  0
   20.9763   27.1669   -1.2618 C   0  0  0  0  0  0  0  0  0  0  0  0
   22.1220   26.4975   -2.0257 C   0  0  0  0  0  0  0  0  0  0  0  0
   23.8478   26.9838   -0.4184 O   0  0  0  0  0  0  0  0  0  0  0  0
   23.4830   27.0158   -1.5867 C   0  0  0  0  0  0  0  0  0  0  0  0
   24.2039   27.5136   -2.6620 N   0  0  0  0  0  0  0  0  0  0  0  0
   23.7626   27.4670   -3.5408 H   0  0  0  0  0  0  0  0  0  0  0  0
   25.4957   28.0787   -2.6422 C   0  0  0  0  0  0  0  0  0  0  0  0
   25.7503   29.4518   -2.6774 C   0  0  0  0  0  0  0  0  0  0  0  0
   27.0652   29.9322   -2.6549 C   0  0  0  0  0  0  0  0  0  0  0  0
   28.1311   29.0397   -2.5968 C   0  0  0  0  0  0  0  0  0  0  0  0
   29.7459   29.6303   -2.5693 Cl  0  0  0  0  0  0  0  0  0  0  0  0
   27.8939   27.6689   -2.5612 C   0  0  0  0  0  0  0  0  0  0  0  0
   26.5797   27.1912   -2.5837 C   0  0  0  0  0  0  0  0  0  0  0  0
 18 19  2  0
 19 17  1  0
 17 16  1  0
 16  1  1  0
  1  2  2  0
  2  3  1  0
  3  4  1  0
  3 12  1  0
 12 13  2  0
 12 14  1  0
  3  5  1  0
  5  6  1  0
  6  7  1  0
  6  8  1  0
  8  9  2  0
 19 20  1  0
 20 22  1  0
 22 23  2  0
 23 24  1  0
 24 25  2  0
 25 26  1  0
 25 27  1  0
 27 28  2  0
  8  1  1  0
 28 22  1  0
  4 10  1  0
 14 15  1  0
  7 11  1  0
 20 21  1  0
M  END
> <minimizedAffinity>
-5.79487

> <CNNscore>
0.2690047920

> <CNNaffinity>
4.4921030998

> <CNN_VS>
1.2083972692

> <CNNaffinity_variance>
0.5707137585

$$$$



 28 29  0  0  0  0  0  0  0  0999 V2000
   21.5705   26.2403    5.3906 C   0  0  0  0  0  0  0  0  0  0  0  0
   21.0591   26.3675    4.1513 C   0  0  0  0  0  0  0  0  0  0  0  0
   19.8809   25.6044    3.6034 C   0  0  0  0  0  0  0  0  0  0  0  0
   18.7909   26.5235    3.6095 O   0  0  0  0  0  0  0  0  0  0  0  0
   19.5220   24.3858    4.4490 C   0  0  0  0  0  0  0  0  0  0  0  0
   19.5156   24.7388    5.9249 C   0  0  0  0  0  0  0  0  0  0  0  0
   19.2224   23.5582    6.6687 O   0  0  0  0  0  0  0  0  0  0  0  0
   20.8660   25.3211    6.3450 C   0  0  0  0  0  0  0  0  0  0  0  0
   21.3407   25.0716    7.4534 O   0  0  0  0  0  0  0  0  0  0  0  0
   19.0184   27.2984    3.0721 H   0  0  0  0  0  0  0  0  0  0  0  0
   19.9001   22.8874    6.4910 H   0  0  0  0  0  0  0  0  0  0  0  0
   20.1846   25.1233    2.1629 C   0  0  0  0  0  0  0  0  0  0  0  0
   20.3974   23.9844    1.7824 O   0  0  0  0  0  0  0  0  0  0  0  0
   20.1733   26.1532    1.2806 O   0  0  0  0  0  0  0  0  0  0  0  0
   20.0091   27.0255    1.5808 H   0  0  0  0  0  0  0  0  0  0  0  0
   22.7830   26.9502    5.9500 C   0  0  0  0  0  0  0  0  0  0  0  0
   22.5049   28.1161    6.9027 C   0  0  0  0  0  0  0  0  0  0  0  0
   23.1851   27.4460    9.1132 O   0  0  0  0  0  0  0  0  0  0  0  0
   23.4306   28.1030    8.1096 C   0  0  0  0  0  0  0  0  0  0  0  0
   24.5342   28.9184    7.9076 N   0  0  0  0  0  0  0  0  0  0  0  0
   24.5798   29.3821    7.0403 H   0  0  0  0  0  0  0  0  0  0  0  0
   25.5984   29.1602    8.8006 C   0  0  0  0  0  0  0  0  0  0  0  0
   26.6623   28.2788    9.0078 C   0  0  0  0  0  0  0  0  0  0  0  0
   27.6811   28.5945    9.9148 C   0  0  0  0  0  0  0  0  0  0  0  0
   27.6392   29.7943   10.6183 C   0  0  0  0  0  0  0  0  0  0  0  0
   28.8907   30.1813   11.7322 Cl  0  0  0  0  0  0  0  0  0  0  0  0
   26.5862   30.6827   10.4230 C   0  0  0  0  0  0  0  0  0  0  0  0
   25.5696   30.3655    9.5165 C   0  0  0  0  0  0  0  0  0  0  0  0
 18 19  2  0
 19 17  1  0
 17 16  1  0
 16  1  1  0
  1  2  2  0
  2  3  1  0
  3  4  1  0
  3 12  1  0
 12 13  2  0
 12 14  1  0
  3  5  1  0
  5  6  1  0
  6  7  1  0
  6  8  1  0
  8  9  2  0
 19 20  1  0
 20 22  1  0
 22 23  2  0
 23 24  1  0
 24 25  2  0
 25 26  1  0
 25 27  1  0
 27 28  2  0
  8  1  1  0
 28 22  1  0
  4 10  1  0
 14 15  1  0
  7 11  1  0
 20 21  1  0
M  END
> <minimizedAffinity>
-6.04961

> <CNNscore>
0.2260582000

> <CNNaffinity>
3.5977175236

> <CNN_VS>
0.8132935762

> <CNNaffinity_variance>
0.4868751466

$$$$



 28 29  0  0  0  0  0  0  0  0999 V2000
   18.3892   27.2288   -0.3383 C   0  0  0  0  0  0  0  0  0  0  0  0
   18.9112   26.3087   -1.1717 C   0  0  0  0  0  0  0  0  0  0  0  0
   19.4065   24.9423   -0.7741 C   0  0  0  0  0  0  0  0  0  0  0  0
   18.3971   24.0289   -1.1983 O   0  0  0  0  0  0  0  0  0  0  0  0
   19.6152   24.8050    0.7313 C   0  0  0  0  0  0  0  0  0  0  0  0
   18.4358   25.3823    1.4922 C   0  0  0  0  0  0  0  0  0  0  0  0
   18.7033   25.2716    2.8883 O   0  0  0  0  0  0  0  0  0  0  0  0
   18.2049   26.8425    1.1001 C   0  0  0  0  0  0  0  0  0  0  0  0
   17.8393   27.6680    1.9373 O   0  0  0  0  0  0  0  0  0  0  0  0
   18.2639   24.1157   -2.1552 H   0  0  0  0  0  0  0  0  0  0  0  0
   19.5103   25.7651    3.1031 H   0  0  0  0  0  0  0  0  0  0  0  0
   20.7514   24.6399   -1.4802 C   0  0  0  0  0  0  0  0  0  0  0  0
   21.8341   25.1671   -1.2875 O   0  0  0  0  0  0  0  0  0  0  0  0
   20.6231   23.6440   -2.3916 O   0  0  0  0  0  0  0  0  0  0  0  0
   19.7878   23.2439   -2.5340 H   0  0  0  0  0  0  0  0  0  0  0  0
   17.9354   28.6260   -0.6976 C   0  0  0  0  0  0  0  0  0  0  0  0
   19.0419   29.6610   -0.9186 C   0  0  0  0  0  0  0  0  0  0  0  0
   20.0389   31.4748    0.3119 O   0  0  0  0  0  0  0  0  0  0  0  0
   19.1309   30.6579    0.2268 C   0  0  0  0  0  0  0  0  0  0  0  0
   18.0808   30.4966    1.1185 N   0  0  0  0  0  0  0  0  0  0  0  0
   17.4328   29.7872    0.9040 H   0  0  0  0  0  0  0  0  0  0  0  0
   17.8340   31.2311    2.2967 C   0  0  0  0  0  0  0  0  0  0  0  0
   17.1099   32.4250    2.3378 C   0  0  0  0  0  0  0  0  0  0  0  0
   16.9098   33.0940    3.5514 C   0  0  0  0  0  0  0  0  0  0  0  0
   17.4339   32.5704    4.7292 C   0  0  0  0  0  0  0  0  0  0  0  0
   17.1880   33.3927    6.2193 Cl  0  0  0  0  0  0  0  0  0  0  0  0
   18.1575   31.3820    4.7047 C   0  0  0  0  0  0  0  0  0  0  0  0
   18.3560   30.7153    3.4915 C   0  0  0  0  0  0  0  0  0  0  0  0
 18 19  2  0
 19 17  1  0
 17 16  1  0
 16  1  1  0
  1  2  2  0
  2  3  1  0
  3  4  1  0
  3 12  1  0
 12 13  2  0
 12 14  1  0
  3  5  1  0
  5  6  1  0
  6  7  1  0
  6  8  1  0
  8  9  2  0
 19 20  1  0
 20 22  1  0
 22 23  2  0
 23 24  1  0
 24 25  2  0
 25 26  1  0
 25 27  1  0
 27 28  2  0
  8  1  1  0
 28 22  1  0
  4 10  1  0
 14 15  1  0
  7 11  1  0
 20 21  1  0
M  END
> <minimizedAffinity>
-4.77859

> <CNNscore>
0.2044557929

> <CNNaffinity>
4.1818180084

> <CNN_VS>
0.8549969196

> <CNNaffinity_variance>
0.0607967712

$$$$



 28 29  0  0  0  0  0  0  0  0999 V2000
   21.2469   26.5200   10.2104 C   0  0  0  0  0  0  0  0  0  0  0  0
   22.5410   26.1678   10.3328 C   0  0  0  0  0  0  0  0  0  0  0  0
   23.7241   27.0186    9.9494 C   0  0  0  0  0  0  0  0  0  0  0  0
   24.2574   27.5111   11.1766 O   0  0  0  0  0  0  0  0  0  0  0  0
   23.3408   28.1938    9.0546 C   0  0  0  0  0  0  0  0  0  0  0  0
   22.1049   28.8946    9.5878 C   0  0  0  0  0  0  0  0  0  0  0  0
   21.7645   29.9504    8.6919 O   0  0  0  0  0  0  0  0  0  0  0  0
   20.9445   27.9081    9.7267 C   0  0  0  0  0  0  0  0  0  0  0  0
   19.7890   28.2585    9.4852 O   0  0  0  0  0  0  0  0  0  0  0  0
   24.5012   26.7645   11.7459 H   0  0  0  0  0  0  0  0  0  0  0  0
   21.5840   29.5827    7.8127 H   0  0  0  0  0  0  0  0  0  0  0  0
   24.7736   26.1603    9.2006 C   0  0  0  0  0  0  0  0  0  0  0  0
   24.6080   25.4717    8.2078 O   0  0  0  0  0  0  0  0  0  0  0  0
   25.9992   26.2605    9.7724 O   0  0  0  0  0  0  0  0  0  0  0  0
   26.1183   26.7917   10.5351 H   0  0  0  0  0  0  0  0  0  0  0  0
   20.0395   25.6688   10.5341 C   0  0  0  0  0  0  0  0  0  0  0  0
   19.7257   24.5377    9.5511 C   0  0  0  0  0  0  0  0  0  0  0  0
   18.2505   25.5544    7.9423 O   0  0  0  0  0  0  0  0  0  0  0  0
   19.3477   25.0634    8.1747 C   0  0  0  0  0  0  0  0  0  0  0  0
   20.3853   24.8979    7.2693 N   0  0  0  0  0  0  0  0  0  0  0  0
   21.2057   24.4808    7.6189 H   0  0  0  0  0  0  0  0  0  0  0  0
   20.4012   25.2580    5.9060 C   0  0  0  0  0  0  0  0  0  0  0  0
   19.7060   24.5724    4.9069 C   0  0  0  0  0  0  0  0  0  0  0  0
   19.7751   24.9955    3.5741 C   0  0  0  0  0  0  0  0  0  0  0  0
   20.5406   26.1071    3.2357 C   0  0  0  0  0  0  0  0  0  0  0  0
   20.6252   26.6260    1.5984 Cl  0  0  0  0  0  0  0  0  0  0  0  0
   21.2389   26.8006    4.2194 C   0  0  0  0  0  0  0  0  0  0  0  0
   21.1685   26.3764    5.5502 C   0  0  0  0  0  0  0  0  0  0  0  0
 18 19  2  0
 19 17  1  0
 17 16  1  0
 16  1  1  0
  1  2  2  0
  2  3  1  0
  3  4  1  0
  3 12  1  0
 12 13  2  0
 12 14  1  0
  3  5  1  0
  5  6  1  0
  6  7  1  0
  6  8  1  0
  8  9  2  0
 19 20  1  0
 20 22  1  0
 22 23  2  0
 23 24  1  0
 24 25  2  0
 25 26  1  0
 25 27  1  0
 27 28  2  0
  8  1  1  0
 28 22  1  0
  4 10  1  0
 14 15  1  0
  7 11  1  0
 20 21  1  0
M  END
> <minimizedAffinity>
-4.72690

> <CNNscore>
0.1965693235

> <CNNaffinity>
3.3168103695

> <CNN_VS>
0.6519831419

> <CNNaffinity_variance>
0.8499796987

$$$$
