


 21 23  0  0  0  0  0  0  0  0999 V2000
  -16.5925    7.6935   31.3963 C   0  0  0  0  0  0  0  0  0  0  0  0
  -16.3473    8.9743   32.1831 C   0  0  0  0  0  0  0  0  0  0  0  0
  -17.6228    9.6996   32.4221 N   0  0  0  0  0  0  0  0  0  0  0  0
  -17.2060   11.1142   32.6323 C   0  0  0  0  0  0  0  0  0  0  0  0
  -16.1210   11.3275   31.5713 C   0  0  0  0  0  0  0  0  0  0  0  0
  -16.7373   11.5730   30.2863 O   0  0  0  0  0  0  0  0  0  0  0  0
  -15.3797    9.9845   31.5209 C   0  0  0  0  0  0  0  0  0  0  0  0
  -15.0373    9.6626   30.1727 O   0  0  0  0  0  0  0  0  0  0  0  0
  -18.0963    9.3356   33.2489 H   0  0  0  0  0  0  0  0  0  0  0  0
  -17.3225   10.8328   30.0616 H   0  0  0  0  0  0  0  0  0  0  0  0
  -15.8419    9.6401   29.6313 H   0  0  0  0  0  0  0  0  0  0  0  0
  -16.7165   11.3411   34.0297 C   0  0  0  0  0  0  0  0  0  0  0  0
  -15.9372   10.5589   34.7506 N   0  0  0  0  0  0  0  0  0  0  0  0
  -15.7906   11.1981   35.9589 C   0  0  0  0  0  0  0  0  0  0  0  0
  -15.0676   10.8114   37.0961 C   0  0  0  0  0  0  0  0  0  0  0  0
  -15.0848   11.6480   38.2195 C   0  0  0  0  0  0  0  0  0  0  0  0
  -15.8067   12.8445   38.2099 C   0  0  0  0  0  0  0  0  0  0  0  0
  -16.5336   13.2475   37.0835 C   0  0  0  0  0  0  0  0  0  0  0  0
  -16.4981   12.3947   35.9785 C   0  0  0  0  0  0  0  0  0  0  0  0
  -17.0763   12.4622   34.7397 N   0  0  0  0  0  0  0  0  0  0  0  0
  -17.6525   13.1903   34.4125 H   0  0  0  0  0  0  0  0  0  0  0  0
  2  1  1  0
  2  3  1  0
  3  4  1  0
  4 12  1  0
 12 13  2  0
 13 14  1  0
 14 15  2  0
 15 16  1  0
 16 17  2  0
 17 18  1  0
 18 19  2  0
 19 20  1  0
  4  5  1  0
  5  6  1  0
  5  7  1  0
  7  8  1  0
  7  2  1  0
 20 12  1  0
 19 14  1  0
  3  9  1  0
 20 21  1  0
  6 10  1  0
  8 11  1  0
M  END
> <minimizedAffinity>
-7.51317

> <CNNscore>
0.9669131041

> <CNNaffinity>
6.4441890717

> <CNN_VS>
6.2309708595

> <CNNaffinity_variance>
0.5241861939

$$$$



 21 23  0  0  0  0  0  0  0  0999 V2000
  -16.7756    7.9104   31.7153 C   0  0  0  0  0  0  0  0  0  0  0  0
  -16.4472    9.2627   32.3345 C   0  0  0  0  0  0  0  0  0  0  0  0
  -17.6759   10.0851   32.4891 N   0  0  0  0  0  0  0  0  0  0  0  0
  -17.1764   11.4881   32.5184 C   0  0  0  0  0  0  0  0  0  0  0  0
  -16.0954   11.5044   31.4323 C   0  0  0  0  0  0  0  0  0  0  0  0
  -16.7140   11.6238   30.1306 O   0  0  0  0  0  0  0  0  0  0  0  0
  -15.4326   10.1246   31.5453 C   0  0  0  0  0  0  0  0  0  0  0  0
  -15.1273    9.6183   30.2457 O   0  0  0  0  0  0  0  0  0  0  0  0
  -18.1582    9.8548   33.3578 H   0  0  0  0  0  0  0  0  0  0  0  0
  -17.3434   10.8967   30.0038 H   0  0  0  0  0  0  0  0  0  0  0  0
  -15.9391    9.5756   29.7165 H   0  0  0  0  0  0  0  0  0  0  0  0
  -16.6560   11.8580   33.8734 C   0  0  0  0  0  0  0  0  0  0  0  0
  -16.3392   13.0583   34.3182 N   0  0  0  0  0  0  0  0  0  0  0  0
  -15.9023   12.8696   35.6079 C   0  0  0  0  0  0  0  0  0  0  0  0
  -15.4418   13.8054   36.5448 C   0  0  0  0  0  0  0  0  0  0  0  0
  -15.0414   13.3503   37.8076 C   0  0  0  0  0  0  0  0  0  0  0  0
  -15.0988   11.9918   38.1301 C   0  0  0  0  0  0  0  0  0  0  0  0
  -15.5565   11.0431   37.2082 C   0  0  0  0  0  0  0  0  0  0  0  0
  -15.9495   11.5250   35.9581 C   0  0  0  0  0  0  0  0  0  0  0  0
  -16.4334   10.9042   34.8383 N   0  0  0  0  0  0  0  0  0  0  0  0
  -16.5948    9.9379   34.7404 H   0  0  0  0  0  0  0  0  0  0  0  0
  2  1  1  0
  2  3  1  0
  3  4  1  0
  4 12  1  0
 12 13  2  0
 13 14  1  0
 14 15  2  0
 15 16  1  0
 16 17  2  0
 17 18  1  0
 18 19  2  0
 19 20  1  0
  4  5  1  0
  5  6  1  0
  5  7  1  0
  7  8  1  0
  7  2  1  0
 20 12  1  0
 19 14  1  0
  3  9  1  0
 20 21  1  0
  6 10  1  0
  8 11  1  0
M  END
> <minimizedAffinity>
-7.27266

> <CNNscore>
0.9509158134

> <CNNaffinity>
6.4362082481

> <CNN_VS>
6.1202921867

> <CNNaffinity_variance>
0.6296074390

$$$$



 21 23  0  0  0  0  0  0  0  0999 V2000
  -16.5131    7.9280   31.6625 C   0  0  0  0  0  0  0  0  0  0  0  0
  -16.6904    9.2056   32.4725 C   0  0  0  0  0  0  0  0  0  0  0  0
  -18.0780    9.7234   32.3451 N   0  0  0  0  0  0  0  0  0  0  0  0
  -17.9557   11.1771   32.6461 C   0  0  0  0  0  0  0  0  0  0  0  0
  -16.6686   11.5842   31.9207 C   0  0  0  0  0  0  0  0  0  0  0  0
  -16.9417   11.7751   30.5135 O   0  0  0  0  0  0  0  0  0  0  0  0
  -15.7453   10.3699   32.0898 C   0  0  0  0  0  0  0  0  0  0  0  0
  -15.0036   10.1458   30.8907 O   0  0  0  0  0  0  0  0  0  0  0  0
  -18.6974    9.2664   33.0143 H   0  0  0  0  0  0  0  0  0  0  0  0
  -17.3232   10.9629   30.1451 H   0  0  0  0  0  0  0  0  0  0  0  0
  -15.6170   10.0200   30.1498 H   0  0  0  0  0  0  0  0  0  0  0  0
  -17.9060   11.4305   34.1216 C   0  0  0  0  0  0  0  0  0  0  0  0
  -17.0209   12.1433   34.7904 N   0  0  0  0  0  0  0  0  0  0  0  0
  -17.4007   12.0587   36.1089 C   0  0  0  0  0  0  0  0  0  0  0  0
  -16.8137   12.6249   37.2494 C   0  0  0  0  0  0  0  0  0  0  0  0
  -17.3981   12.3781   38.4983 C   0  0  0  0  0  0  0  0  0  0  0  0
  -18.5430   11.5845   38.6085 C   0  0  0  0  0  0  0  0  0  0  0  0
  -19.1435   11.0117   37.4812 C   0  0  0  0  0  0  0  0  0  0  0  0
  -18.5401   11.2749   36.2498 C   0  0  0  0  0  0  0  0  0  0  0  0
  -18.8415   10.8893   34.9715 N   0  0  0  0  0  0  0  0  0  0  0  0
  -19.5998   10.3205   34.7057 H   0  0  0  0  0  0  0  0  0  0  0  0
  2  1  1  0
  2  3  1  0
  3  4  1  0
  4 12  1  0
 12 13  2  0
 13 14  1  0
 14 15  2  0
 15 16  1  0
 16 17  2  0
 17 18  1  0
 18 19  2  0
 19 20  1  0
  4  5  1  0
  5  6  1  0
  5  7  1  0
  7  8  1  0
  7  2  1  0
 20 12  1  0
 19 14  1  0
  3  9  1  0
 20 21  1  0
  6 10  1  0
  8 11  1  0
M  END
> <minimizedAffinity>
-6.65532

> <CNNscore>
0.8563164473

> <CNNaffinity>
5.7726454735

> <CNN_VS>
4.9432110786

> <CNNaffinity_variance>
0.3506560028

$$$$



 21 23  0  0  0  0  0  0  0  0999 V2000
  -16.1695    8.6121   31.3510 C   0  0  0  0  0  0  0  0  0  0  0  0
  -16.2238    9.8064   32.2946 C   0  0  0  0  0  0  0  0  0  0  0  0
  -17.5739   10.4287   32.2817 N   0  0  0  0  0  0  0  0  0  0  0  0
  -17.3353   11.8308   32.7244 C   0  0  0  0  0  0  0  0  0  0  0  0
  -16.0493   12.2228   31.9890 C   0  0  0  0  0  0  0  0  0  0  0  0
  -16.3588   12.5791   30.6220 O   0  0  0  0  0  0  0  0  0  0  0  0
  -15.2112   10.9370   31.9923 C   0  0  0  0  0  0  0  0  0  0  0  0
  -14.5319   10.7902   30.7451 O   0  0  0  0  0  0  0  0  0  0  0  0
  -18.2001    9.9473   32.9271 H   0  0  0  0  0  0  0  0  0  0  0  0
  -16.8115   11.8382   30.1894 H   0  0  0  0  0  0  0  0  0  0  0  0
  -15.1793   10.7854   30.0229 H   0  0  0  0  0  0  0  0  0  0  0  0
  -17.2137   11.9234   34.2146 C   0  0  0  0  0  0  0  0  0  0  0  0
  -17.8859   11.2461   35.1246 N   0  0  0  0  0  0  0  0  0  0  0  0
  -17.4227   11.6988   36.3371 C   0  0  0  0  0  0  0  0  0  0  0  0
  -17.7932   11.3225   37.6359 C   0  0  0  0  0  0  0  0  0  0  0  0
  -17.1672   11.9492   38.7211 C   0  0  0  0  0  0  0  0  0  0  0  0
  -16.1928   12.9298   38.5165 C   0  0  0  0  0  0  0  0  0  0  0  0
  -15.8093   13.3178   37.2274 C   0  0  0  0  0  0  0  0  0  0  0  0
  -16.4492   12.6762   36.1651 C   0  0  0  0  0  0  0  0  0  0  0  0
  -16.3343   12.7990   34.8067 N   0  0  0  0  0  0  0  0  0  0  0  0
  -15.7251   13.4108   34.3337 H   0  0  0  0  0  0  0  0  0  0  0  0
  2  1  1  0
  2  3  1  0
  3  4  1  0
  4 12  1  0
 12 13  2  0
 13 14  1  0
 14 15  2  0
 15 16  1  0
 16 17  2  0
 17 18  1  0
 18 19  2  0
 19 20  1  0
  4  5  1  0
  5  6  1  0
  5  7  1  0
  7  8  1  0
  7  2  1  0
 20 12  1  0
 19 14  1  0
  3  9  1  0
 20 21  1  0
  6 10  1  0
  8 11  1  0
M  END
> <minimizedAffinity>
-6.20801

> <CNNscore>
0.7772410512

> <CNNaffinity>
6.1290154457

> <CNN_VS>
4.7637224197

> <CNNaffinity_variance>
0.6837980747

$$$$



 21 23  0  0  0  0  0  0  0  0999 V2000
  -18.6170    9.0502   32.5084 C   0  0  0  0  0  0  0  0  0  0  0  0
  -17.4604   10.0349   32.6205 C   0  0  0  0  0  0  0  0  0  0  0  0
  -17.5884   11.1170   31.6093 N   0  0  0  0  0  0  0  0  0  0  0  0
  -16.1962   11.6144   31.4267 C   0  0  0  0  0  0  0  0  0  0  0  0
  -15.3582   10.3314   31.4140 C   0  0  0  0  0  0  0  0  0  0  0  0
  -15.4365    9.7109   30.1101 O   0  0  0  0  0  0  0  0  0  0  0  0
  -16.0497    9.4242   32.4409 C   0  0  0  0  0  0  0  0  0  0  0  0
  -16.0561    8.0737   31.9778 O   0  0  0  0  0  0  0  0  0  0  0  0
  -18.1963   11.8613   31.9511 H   0  0  0  0  0  0  0  0  0  0  0  0
  -16.3652    9.5386   29.8892 H   0  0  0  0  0  0  0  0  0  0  0  0
  -16.4988    8.0295   31.1159 H   0  0  0  0  0  0  0  0  0  0  0  0
  -15.8042   12.5636   32.5172 C   0  0  0  0  0  0  0  0  0  0  0  0
  -16.5225   13.5400   33.0364 N   0  0  0  0  0  0  0  0  0  0  0  0
  -15.7190   14.1223   33.9877 C   0  0  0  0  0  0  0  0  0  0  0  0
  -15.9783   15.2049   34.8401 C   0  0  0  0  0  0  0  0  0  0  0  0
  -14.9756   15.6160   35.7277 C   0  0  0  0  0  0  0  0  0  0  0  0
  -13.7411   14.9624   35.7654 C   0  0  0  0  0  0  0  0  0  0  0  0
  -13.4644   13.8793   34.9229 C   0  0  0  0  0  0  0  0  0  0  0  0
  -14.4819   13.4909   34.0493 C   0  0  0  0  0  0  0  0  0  0  0  0
  -14.5629   12.5030   33.1053 N   0  0  0  0  0  0  0  0  0  0  0  0
  -13.8524   11.8582   32.8848 H   0  0  0  0  0  0  0  0  0  0  0  0
  2  1  1  0
  2  3  1  0
  3  4  1  0
  4 12  1  0
 12 13  2  0
 13 14  1  0
 14 15  2  0
 15 16  1  0
 16 17  2  0
 17 18  1  0
 18 19  2  0
 19 20  1  0
  4  5  1  0
  5  6  1  0
  5  7  1  0
  7  8  1  0
  7  2  1  0
 20 12  1  0
 19 14  1  0
  3  9  1  0
 20 21  1  0
  6 10  1  0
  8 11  1  0
M  END
> <minimizedAffinity>
-5.73001

> <CNNscore>
0.5036009550

> <CNNaffinity>
5.6695618629

> <CNN_VS>
2.8551967144

> <CNNaffinity_variance>
0.2961962819

$$$$



 21 23  0  0  0  0  0  0  0  0999 V2000
  -18.9162    9.8346   44.1241 C   0  0  0  0  0  0  0  0  0  0  0  0
  -19.9456    8.9370   43.4500 C   0  0  0  0  0  0  0  0  0  0  0  0
  -19.5302    7.5114   43.5209 N   0  0  0  0  0  0  0  0  0  0  0  0
  -20.2416    6.8654   42.3826 C   0  0  0  0  0  0  0  0  0  0  0  0
  -20.1053    7.8889   41.2502 C   0  0  0  0  0  0  0  0  0  0  0  0
  -18.7940    7.7802   40.6501 O   0  0  0  0  0  0  0  0  0  0  0  0
  -20.2193    9.2458   41.9584 C   0  0  0  0  0  0  0  0  0  0  0  0
  -19.3060   10.1793   41.3814 O   0  0  0  0  0  0  0  0  0  0  0  0
  -19.8146    7.0956   44.4078 H   0  0  0  0  0  0  0  0  0  0  0  0
  -18.1152    7.9026   41.3321 H   0  0  0  0  0  0  0  0  0  0  0  0
  -18.4040    9.8275   41.4398 H   0  0  0  0  0  0  0  0  0  0  0  0
  -21.6657    6.5560   42.7291 C   0  0  0  0  0  0  0  0  0  0  0  0
  -22.2095    6.4863   43.9284 N   0  0  0  0  0  0  0  0  0  0  0  0
  -23.5283    6.1613   43.7162 C   0  0  0  0  0  0  0  0  0  0  0  0
  -24.5621    5.9590   44.6414 C   0  0  0  0  0  0  0  0  0  0  0  0
  -25.8353    5.6238   44.1631 C   0  0  0  0  0  0  0  0  0  0  0  0
  -26.0735    5.4933   42.7923 C   0  0  0  0  0  0  0  0  0  0  0  0
  -25.0541    5.6923   41.8538 C   0  0  0  0  0  0  0  0  0  0  0  0
  -23.7959    6.0259   42.3588 C   0  0  0  0  0  0  0  0  0  0  0  0
  -22.5954    6.2833   41.7536 N   0  0  0  0  0  0  0  0  0  0  0  0
  -22.4263    6.2746   40.7837 H   0  0  0  0  0  0  0  0  0  0  0  0
  2  1  1  0
  2  3  1  0
  3  4  1  0
  4 12  1  0
 12 13  2  0
 13 14  1  0
 14 15  2  0
 15 16  1  0
 16 17  2  0
 17 18  1  0
 18 19  2  0
 19 20  1  0
  4  5  1  0
  5  6  1  0
  5  7  1  0
  7  8  1  0
  7  2  1  0
 20 12  1  0
 19 14  1  0
  3  9  1  0
 20 21  1  0
  6 10  1  0
  8 11  1  0
M  END
> <minimizedAffinity>
-4.90075

> <CNNscore>
0.4196836352

> <CNNaffinity>
3.0585386753

> <CNN_VS>
1.2836186886

> <CNNaffinity_variance>
0.9603125453

$$$$



 21 23  0  0  0  0  0  0  0  0999 V2000
  -25.2198   12.1880   39.3051 C   0  0  0  0  0  0  0  0  0  0  0  0
  -24.2426   12.4109   38.1582 C   0  0  0  0  0  0  0  0  0  0  0  0
  -24.9691   12.7020   36.8944 N   0  0  0  0  0  0  0  0  0  0  0  0
  -24.0103   12.3134   35.8227 C   0  0  0  0  0  0  0  0  0  0  0  0
  -23.4016   11.0078   36.3453 C   0  0  0  0  0  0  0  0  0  0  0  0
  -24.3116    9.9117   36.0961 O   0  0  0  0  0  0  0  0  0  0  0  0
  -23.2894   11.2287   37.8600 C   0  0  0  0  0  0  0  0  0  0  0  0
  -23.6182   10.0272   38.5575 O   0  0  0  0  0  0  0  0  0  0  0  0
  -25.2006   13.6933   36.8304 H   0  0  0  0  0  0  0  0  0  0  0  0
  -25.1682   10.1024   36.5092 H   0  0  0  0  0  0  0  0  0  0  0  0
  -24.5120    9.7436   38.3094 H   0  0  0  0  0  0  0  0  0  0  0  0
  -22.9908   13.3844   35.5828 C   0  0  0  0  0  0  0  0  0  0  0  0
  -23.1687   14.6907   35.6082 N   0  0  0  0  0  0  0  0  0  0  0  0
  -21.9413   15.2352   35.3134 C   0  0  0  0  0  0  0  0  0  0  0  0
  -21.5593   16.5798   35.2048 C   0  0  0  0  0  0  0  0  0  0  0  0
  -20.2290   16.8761   34.8812 C   0  0  0  0  0  0  0  0  0  0  0  0
  -19.2991   15.8545   34.6706 C   0  0  0  0  0  0  0  0  0  0  0  0
  -19.6617   14.5065   34.7755 C   0  0  0  0  0  0  0  0  0  0  0  0
  -20.9935   14.2408   35.0997 C   0  0  0  0  0  0  0  0  0  0  0  0
  -21.6864   13.0739   35.2783 N   0  0  0  0  0  0  0  0  0  0  0  0
  -21.3137   12.1659   35.2018 H   0  0  0  0  0  0  0  0  0  0  0  0
  2  1  1  0
  2  3  1  0
  3  4  1  0
  4 12  1  0
 12 13  2  0
 13 14  1  0
 14 15  2  0
 15 16  1  0
 16 17  2  0
 17 18  1  0
 18 19  2  0
 19 20  1  0
  4  5  1  0
  5  6  1  0
  5  7  1  0
  7  8  1  0
  7  2  1  0
 20 12  1  0
 19 14  1  0
  3  9  1  0
 20 21  1  0
  6 10  1  0
  8 11  1  0
M  END
> <minimizedAffinity>
-4.86220

> <CNNscore>
0.4032298923

> <CNNaffinity>
3.2611110210

> <CNN_VS>
1.3149774075

> <CNNaffinity_variance>
0.6917700171

$$$$



 21 23  0  0  0  0  0  0  0  0999 V2000
  -19.8512   12.2154   37.4989 C   0  0  0  0  0  0  0  0  0  0  0  0
  -19.6290   11.6043   36.1215 C   0  0  0  0  0  0  0  0  0  0  0  0
  -19.8182   12.6227   35.0552 N   0  0  0  0  0  0  0  0  0  0  0  0
  -20.1598   11.8259   33.8439 C   0  0  0  0  0  0  0  0  0  0  0  0
  -21.1147   10.7540   34.3801 C   0  0  0  0  0  0  0  0  0  0  0  0
  -22.4393   11.3139   34.5335 O   0  0  0  0  0  0  0  0  0  0  0  0
  -20.5527   10.4142   35.7673 C   0  0  0  0  0  0  0  0  0  0  0  0
  -21.6200   10.2114   36.6936 O   0  0  0  0  0  0  0  0  0  0  0  0
  -18.9609   13.1554   34.9078 H   0  0  0  0  0  0  0  0  0  0  0  0
  -22.3978   12.0868   35.1183 H   0  0  0  0  0  0  0  0  0  0  0  0
  -22.1761   11.0056   36.7251 H   0  0  0  0  0  0  0  0  0  0  0  0
  -18.9347   11.2543   33.1987 C   0  0  0  0  0  0  0  0  0  0  0  0
  -17.8495   11.8963   32.8127 N   0  0  0  0  0  0  0  0  0  0  0  0
  -17.0272   10.9369   32.2712 C   0  0  0  0  0  0  0  0  0  0  0  0
  -15.7503   11.0649   31.7066 C   0  0  0  0  0  0  0  0  0  0  0  0
  -15.1171    9.9180   31.2110 C   0  0  0  0  0  0  0  0  0  0  0  0
  -15.7426    8.6701   31.2766 C   0  0  0  0  0  0  0  0  0  0  0  0
  -17.0166    8.5227   31.8375 C   0  0  0  0  0  0  0  0  0  0  0  0
  -17.6236    9.6822   32.3239 C   0  0  0  0  0  0  0  0  0  0  0  0
  -18.8345    9.9118   32.9192 N   0  0  0  0  0  0  0  0  0  0  0  0
  -19.5182    9.2308   33.1143 H   0  0  0  0  0  0  0  0  0  0  0  0
  2  1  1  0
  2  3  1  0
  3  4  1  0
  4 12  1  0
 12 13  2  0
 13 14  1  0
 14 15  2  0
 15 16  1  0
 16 17  2  0
 17 18  1  0
 18 19  2  0
 19 20  1  0
  4  5  1  0
  5  6  1  0
  5  7  1  0
  7  8  1  0
  7  2  1  0
 20 12  1  0
 19 14  1  0
  3  9  1  0
 20 21  1  0
  6 10  1  0
  8 11  1  0
M  END
> <minimizedAffinity>
-6.71258

> <CNNscore>
0.3799301684

> <CNNaffinity>
4.2986283302

> <CNN_VS>
1.6331785917

> <CNNaffinity_variance>
0.5503756404

$$$$



 21 23  0  0  0  0  0  0  0  0999 V2000
  -24.9893   12.2987   39.3319 C   0  0  0  0  0  0  0  0  0  0  0  0
  -24.0467   12.4300   38.1428 C   0  0  0  0  0  0  0  0  0  0  0  0
  -24.7934   12.8173   36.9172 N   0  0  0  0  0  0  0  0  0  0  0  0
  -23.9329   12.3418   35.7981 C   0  0  0  0  0  0  0  0  0  0  0  0
  -23.4486   10.9698   36.2791 C   0  0  0  0  0  0  0  0  0  0  0  0
  -24.4842    9.9838   36.0623 O   0  0  0  0  0  0  0  0  0  0  0  0
  -23.2440   11.1549   37.7890 C   0  0  0  0  0  0  0  0  0  0  0  0
  -23.6711    9.9866   38.4896 O   0  0  0  0  0  0  0  0  0  0  0  0
  -24.9170   13.8289   36.8736 H   0  0  0  0  0  0  0  0  0  0  0  0
  -25.2949   10.2611   36.5169 H   0  0  0  0  0  0  0  0  0  0  0  0
  -24.6010    9.8062   38.2808 H   0  0  0  0  0  0  0  0  0  0  0  0
  -22.8136   13.2980   35.5210 C   0  0  0  0  0  0  0  0  0  0  0  0
  -21.5565   13.0129   35.2431 N   0  0  0  0  0  0  0  0  0  0  0  0
  -20.9300   14.2263   35.0855 C   0  0  0  0  0  0  0  0  0  0  0  0
  -19.5910   14.5118   34.7834 C   0  0  0  0  0  0  0  0  0  0  0  0
  -19.1960   15.8520   34.6837 C   0  0  0  0  0  0  0  0  0  0  0  0
  -20.1155   16.8857   34.8805 C   0  0  0  0  0  0  0  0  0  0  0  0
  -21.4565   16.6201   35.1819 C   0  0  0  0  0  0  0  0  0  0  0  0
  -21.8220   15.2758   35.2745 C   0  0  0  0  0  0  0  0  0  0  0  0
  -23.0124   14.6582   35.5486 N   0  0  0  0  0  0  0  0  0  0  0  0
  -23.8664   15.1113   35.7342 H   0  0  0  0  0  0  0  0  0  0  0  0
  2  1  1  0
  2  3  1  0
  3  4  1  0
  4 12  1  0
 12 13  2  0
 13 14  1  0
 14 15  2  0
 15 16  1  0
 16 17  2  0
 17 18  1  0
 18 19  2  0
 19 20  1  0
  4  5  1  0
  5  6  1  0
  5  7  1  0
  7  8  1  0
  7  2  1  0
 20 12  1  0
 19 14  1  0
  3  9  1  0
 20 21  1  0
  6 10  1  0
  8 11  1  0
M  END
> <minimizedAffinity>
-4.76737

> <CNNscore>
0.3617450893

> <CNNaffinity>
3.2087695599

> <CNN_VS>
1.1607565880

> <CNNaffinity_variance>
0.5936355591

$$$$
