


 23 23  0  0  0  0  0  0  0  0999 V2000
   38.6401   40.3019   -3.6473 C   0  0  0  0  0  0  0  0  0  0  0  0
   39.3004   41.3084   -3.4227 O   0  0  0  0  0  0  0  0  0  0  0  0
   37.3420   40.3372   -4.1150 N   0  0  0  0  0  0  0  0  0  0  0  0
   36.8547   39.4905   -4.2367 H   0  0  0  0  0  0  0  0  0  0  0  0
   39.1535   38.8866   -3.4478 C   0  0  0  0  0  0  0  0  0  0  0  0
   38.6076   38.2531   -2.1649 C   0  0  0  0  0  0  0  0  0  0  0  0
   39.1580   36.8401   -1.8262 C   0  0  0  0  0  0  0  0  0  0  0  0
   38.0329   35.7904   -1.9522 C   0  0  0  0  0  0  0  0  0  0  0  0
   40.2404   36.4877   -2.8689 C   0  0  0  0  0  0  0  0  0  0  0  0
   39.7477   36.7407   -0.3915 C   0  0  0  0  0  0  0  0  0  0  0  0
   41.0665   35.2048    1.1100 C   0  0  0  0  0  0  0  0  0  0  0  0
   39.8668   35.3236    0.1804 C   0  0  0  0  0  0  0  0  0  0  0  0
   36.6634   41.6073   -4.4382 C   0  0  0  0  0  0  0  0  0  0  0  0
   35.7922   41.4087   -5.6995 C   0  0  0  0  0  0  0  0  0  0  0  0
   35.3269   42.9308   -6.5751 S   0  0  0  0  0  0  0  0  0  0  0  0
   34.5581   43.7043   -5.7625 H   0  0  0  0  0  0  0  0  0  0  0  0
   35.8655   42.0600   -3.1917 C   0  0  0  0  0  0  0  0  0  0  0  0
   36.6656   42.6790   -2.0719 C   0  0  0  0  0  0  0  0  0  0  0  0
   36.7613   42.0442   -0.8253 C   0  0  0  0  0  0  0  0  0  0  0  0
   37.4857   42.6286    0.2151 C   0  0  0  0  0  0  0  0  0  0  0  0
   38.1150   43.8565    0.0241 C   0  0  0  0  0  0  0  0  0  0  0  0
   38.0177   44.5027   -1.2062 C   0  0  0  0  0  0  0  0  0  0  0  0
   37.2936   43.9199   -2.2479 C   0  0  0  0  0  0  0  0  0  0  0  0
 11 12  1  0
 12 10  1  0
 10  7  1  0
  7  8  1  0
  7  9  1  0
  7  6  1  0
  6  5  1  0
  5  1  1  0
  1  2  2  0
  1  3  1  0
  3 13  1  0
 13 14  1  0
 14 15  1  0
 13 17  1  0
 17 18  1  0
 18 19  2  0
 19 20  1  0
 20 21  2  0
 21 22  1  0
 22 23  2  0
 23 18  1  0
  3  4  1  0
 15 16  1  0
M  END
> <minimizedAffinity>
-5.93865

> <CNNscore>
0.9375677109

> <CNNaffinity>
6.9625358582

> <CNN_VS>
6.5278487206

> <CNNaffinity_variance>
0.3520305157

$$$$



 23 23  0  0  0  0  0  0  0  0999 V2000
   38.3753   40.2374   -3.6911 C   0  0  0  0  0  0  0  0  0  0  0  0
   39.2746   41.0105   -3.3861 O   0  0  0  0  0  0  0  0  0  0  0  0
   37.1031   40.6521   -4.0294 N   0  0  0  0  0  0  0  0  0  0  0  0
   36.4160   39.9748   -4.2258 H   0  0  0  0  0  0  0  0  0  0  0  0
   38.5333   38.7278   -3.7426 C   0  0  0  0  0  0  0  0  0  0  0  0
   39.2893   38.2719   -4.9940 C   0  0  0  0  0  0  0  0  0  0  0  0
   40.7124   37.6988   -4.7480 C   0  0  0  0  0  0  0  0  0  0  0  0
   40.6417   36.5141   -3.7606 C   0  0  0  0  0  0  0  0  0  0  0  0
   41.2449   37.1530   -6.0903 C   0  0  0  0  0  0  0  0  0  0  0  0
   41.7028   38.7472   -4.1685 C   0  0  0  0  0  0  0  0  0  0  0  0
   43.7181   39.2695   -2.7479 C   0  0  0  0  0  0  0  0  0  0  0  0
   42.6578   38.2309   -3.0865 C   0  0  0  0  0  0  0  0  0  0  0  0
   36.7426   42.0812   -4.1055 C   0  0  0  0  0  0  0  0  0  0  0  0
   35.9919   42.3438   -5.4309 C   0  0  0  0  0  0  0  0  0  0  0  0
   35.3870   40.8633   -6.2926 S   0  0  0  0  0  0  0  0  0  0  0  0
   36.4432   40.0895   -6.6602 H   0  0  0  0  0  0  0  0  0  0  0  0
   35.9254   42.4417   -2.8416 C   0  0  0  0  0  0  0  0  0  0  0  0
   36.7121   42.6459   -1.5701 C   0  0  0  0  0  0  0  0  0  0  0  0
   36.5247   41.7983   -0.4689 C   0  0  0  0  0  0  0  0  0  0  0  0
   37.2394   42.0014    0.7129 C   0  0  0  0  0  0  0  0  0  0  0  0
   38.1422   43.0577    0.8102 C   0  0  0  0  0  0  0  0  0  0  0  0
   38.3287   43.9138   -0.2729 C   0  0  0  0  0  0  0  0  0  0  0  0
   37.6149   43.7123   -1.4557 C   0  0  0  0  0  0  0  0  0  0  0  0
 11 12  1  0
 12 10  1  0
 10  7  1  0
  7  8  1  0
  7  9  1  0
  7  6  1  0
  6  5  1  0
  5  1  1  0
  1  2  2  0
  1  3  1  0
  3 13  1  0
 13 14  1  0
 14 15  1  0
 13 17  1  0
 17 18  1  0
 18 19  2  0
 19 20  1  0
 20 21  2  0
 21 22  1  0
 22 23  2  0
 23 18  1  0
  3  4  1  0
 15 16  1  0
M  END
> <minimizedAffinity>
-6.08438

> <CNNscore>
0.9304164648

> <CNNaffinity>
6.7633175850

> <CNN_VS>
6.2927021980

> <CNNaffinity_variance>
0.1929706186

$$$$



 23 23  0  0  0  0  0  0  0  0999 V2000
   38.1497   40.3680   -3.6257 C   0  0  0  0  0  0  0  0  0  0  0  0
   37.5679   40.0843   -4.6652 O   0  0  0  0  0  0  0  0  0  0  0  0
   38.1183   41.6267   -3.0603 N   0  0  0  0  0  0  0  0  0  0  0  0
   38.6414   41.7970   -2.2438 H   0  0  0  0  0  0  0  0  0  0  0  0
   38.9769   39.3828   -2.8185 C   0  0  0  0  0  0  0  0  0  0  0  0
   40.3608   39.1554   -3.4336 C   0  0  0  0  0  0  0  0  0  0  0  0
   40.9697   37.7427   -3.2148 C   0  0  0  0  0  0  0  0  0  0  0  0
   42.4465   37.8650   -2.7821 C   0  0  0  0  0  0  0  0  0  0  0  0
   40.2017   37.0666   -2.0588 C   0  0  0  0  0  0  0  0  0  0  0  0
   40.9149   36.8491   -4.4855 C   0  0  0  0  0  0  0  0  0  0  0  0
   38.8912   37.0488   -5.9745 C   0  0  0  0  0  0  0  0  0  0  0  0
   40.3226   37.5089   -5.7358 C   0  0  0  0  0  0  0  0  0  0  0  0
   37.3233   42.7247   -3.6439 C   0  0  0  0  0  0  0  0  0  0  0  0
   36.0528   42.1367   -4.2990 C   0  0  0  0  0  0  0  0  0  0  0  0
   35.6265   42.8188   -5.9277 S   0  0  0  0  0  0  0  0  0  0  0  0
   35.3503   44.1449   -5.8057 H   0  0  0  0  0  0  0  0  0  0  0  0
   37.0316   43.7565   -2.5279 C   0  0  0  0  0  0  0  0  0  0  0  0
   37.3387   43.3220   -1.1158 C   0  0  0  0  0  0  0  0  0  0  0  0
   38.4238   43.8717   -0.4181 C   0  0  0  0  0  0  0  0  0  0  0  0
   38.7176   43.4536    0.8809 C   0  0  0  0  0  0  0  0  0  0  0  0
   37.9362   42.4766    1.4936 C   0  0  0  0  0  0  0  0  0  0  0  0
   36.8625   41.9145    0.8066 C   0  0  0  0  0  0  0  0  0  0  0  0
   36.5672   42.3312   -0.4927 C   0  0  0  0  0  0  0  0  0  0  0  0
 11 12  1  0
 12 10  1  0
 10  7  1  0
  7  8  1  0
  7  9  1  0
  7  6  1  0
  6  5  1  0
  5  1  1  0
  1  2  2  0
  1  3  1  0
  3 13  1  0
 13 14  1  0
 14 15  1  0
 13 17  1  0
 17 18  1  0
 18 19  2  0
 19 20  1  0
 20 21  2  0
 21 22  1  0
 22 23  2  0
 23 18  1  0
  3  4  1  0
 15 16  1  0
M  END
> <minimizedAffinity>
-5.87224

> <CNNscore>
0.8597056270

> <CNNaffinity>
6.3970618248

> <CNN_VS>
5.4995899200

> <CNNaffinity_variance>
0.2033147812

$$$$



 23 23  0  0  0  0  0  0  0  0999 V2000
   35.7090   41.9123   -5.0283 C   0  0  0  0  0  0  0  0  0  0  0  0
   35.2620   42.9887   -5.4039 O   0  0  0  0  0  0  0  0  0  0  0  0
   35.3474   40.7049   -5.5908 N   0  0  0  0  0  0  0  0  0  0  0  0
   35.7150   39.8730   -5.2140 H   0  0  0  0  0  0  0  0  0  0  0  0
   36.7176   41.7568   -3.9035 C   0  0  0  0  0  0  0  0  0  0  0  0
   37.0528   43.0973   -3.2433 C   0  0  0  0  0  0  0  0  0  0  0  0
   36.6610   43.2254   -1.7452 C   0  0  0  0  0  0  0  0  0  0  0  0
   36.3608   44.7003   -1.4016 C   0  0  0  0  0  0  0  0  0  0  0  0
   35.3611   42.4231   -1.5224 C   0  0  0  0  0  0  0  0  0  0  0  0
   37.7693   42.7239   -0.7777 C   0  0  0  0  0  0  0  0  0  0  0  0
   37.6421   42.3522    1.7119 C   0  0  0  0  0  0  0  0  0  0  0  0
   37.2996   41.7868    0.3406 C   0  0  0  0  0  0  0  0  0  0  0  0
   34.4257   40.6247   -6.7406 C   0  0  0  0  0  0  0  0  0  0  0  0
   34.8910   41.6153   -7.8321 C   0  0  0  0  0  0  0  0  0  0  0  0
   33.6178   42.7568   -8.4452 S   0  0  0  0  0  0  0  0  0  0  0  0
   32.6246   42.0480   -9.0458 H   0  0  0  0  0  0  0  0  0  0  0  0
   34.3705   39.1523   -7.2143 C   0  0  0  0  0  0  0  0  0  0  0  0
   33.0530   38.6777   -7.7766 C   0  0  0  0  0  0  0  0  0  0  0  0
   32.3205   37.6713   -7.1309 C   0  0  0  0  0  0  0  0  0  0  0  0
   31.1117   37.2203   -7.6638 C   0  0  0  0  0  0  0  0  0  0  0  0
   30.6260   37.7635   -8.8510 C   0  0  0  0  0  0  0  0  0  0  0  0
   31.3502   38.7557   -9.5080 C   0  0  0  0  0  0  0  0  0  0  0  0
   32.5594   39.2081   -8.9767 C   0  0  0  0  0  0  0  0  0  0  0  0
 11 12  1  0
 12 10  1  0
 10  7  1  0
  7  8  1  0
  7  9  1  0
  7  6  1  0
  6  5  1  0
  5  1  1  0
  1  2  2  0
  1  3  1  0
  3 13  1  0
 13 14  1  0
 14 15  1  0
 13 17  1  0
 17 18  1  0
 18 19  2  0
 19 20  1  0
 20 21  2  0
 21 22  1  0
 22 23  2  0
 23 18  1  0
  3  4  1  0
 15 16  1  0
M  END
> <minimizedAffinity>
-6.87185

> <CNNscore>
0.8305720091

> <CNNaffinity>
6.5536408424

> <CNN_VS>
5.4432706833

> <CNNaffinity_variance>
0.1171906516

$$$$



 23 23  0  0  0  0  0  0  0  0999 V2000
   36.4026   41.9866   -4.4979 C   0  0  0  0  0  0  0  0  0  0  0  0
   35.6234   42.9312   -4.4917 O   0  0  0  0  0  0  0  0  0  0  0  0
   36.2744   40.9055   -5.3463 N   0  0  0  0  0  0  0  0  0  0  0  0
   36.9140   40.1608   -5.2714 H   0  0  0  0  0  0  0  0  0  0  0  0
   37.6104   41.8751   -3.5839 C   0  0  0  0  0  0  0  0  0  0  0  0
   37.2752   41.1550   -2.2746 C   0  0  0  0  0  0  0  0  0  0  0  0
   36.6659   42.0440   -1.1555 C   0  0  0  0  0  0  0  0  0  0  0  0
   35.1249   42.0275   -1.2476 C   0  0  0  0  0  0  0  0  0  0  0  0
   37.0560   41.4301    0.2062 C   0  0  0  0  0  0  0  0  0  0  0  0
   37.1344   43.5243   -1.2265 C   0  0  0  0  0  0  0  0  0  0  0  0
   38.7626   44.0324    0.6292 C   0  0  0  0  0  0  0  0  0  0  0  0
   38.6023   43.7739   -0.8625 C   0  0  0  0  0  0  0  0  0  0  0  0
   35.2065   40.8333   -6.3624 C   0  0  0  0  0  0  0  0  0  0  0  0
   35.3494   42.0285   -7.3322 C   0  0  0  0  0  0  0  0  0  0  0  0
   33.7885   42.7424   -7.9273 S   0  0  0  0  0  0  0  0  0  0  0  0
   33.1105   41.8111   -8.6502 H   0  0  0  0  0  0  0  0  0  0  0  0
   35.2908   39.4519   -7.0552 C   0  0  0  0  0  0  0  0  0  0  0  0
   33.9966   38.8902   -7.5906 C   0  0  0  0  0  0  0  0  0  0  0  0
   33.6434   39.0646   -8.9363 C   0  0  0  0  0  0  0  0  0  0  0  0
   32.4364   38.5610   -9.4244 C   0  0  0  0  0  0  0  0  0  0  0  0
   31.5660   37.8854   -8.5721 C   0  0  0  0  0  0  0  0  0  0  0  0
   31.9003   37.7157   -7.2304 C   0  0  0  0  0  0  0  0  0  0  0  0
   33.1069   38.2187   -6.7404 C   0  0  0  0  0  0  0  0  0  0  0  0
 11 12  1  0
 12 10  1  0
 10  7  1  0
  7  8  1  0
  7  9  1  0
  7  6  1  0
  6  5  1  0
  5  1  1  0
  1  2  2  0
  1  3  1  0
  3 13  1  0
 13 14  1  0
 14 15  1  0
 13 17  1  0
 17 18  1  0
 18 19  2  0
 19 20  1  0
 20 21  2  0
 21 22  1  0
 22 23  2  0
 23 18  1  0
  3  4  1  0
 15 16  1  0
M  END
> <minimizedAffinity>
-6.16385

> <CNNscore>
0.8043966889

> <CNNaffinity>
6.6116957664

> <CNN_VS>
5.3184261322

> <CNNaffinity_variance>
0.2678276896

$$$$



 23 23  0  0  0  0  0  0  0  0999 V2000
   34.6922   39.5574   -6.8144 C   0  0  0  0  0  0  0  0  0  0  0  0
   35.4186   39.4978   -7.7984 O   0  0  0  0  0  0  0  0  0  0  0  0
   34.9564   40.3647   -5.7265 N   0  0  0  0  0  0  0  0  0  0  0  0
   34.3508   40.3346   -4.9509 H   0  0  0  0  0  0  0  0  0  0  0  0
   33.4085   38.7613   -6.6562 C   0  0  0  0  0  0  0  0  0  0  0  0
   33.3359   37.5878   -7.6374 C   0  0  0  0  0  0  0  0  0  0  0  0
   32.0470   37.5133   -8.5020 C   0  0  0  0  0  0  0  0  0  0  0  0
   31.7085   38.9094   -9.0675 C   0  0  0  0  0  0  0  0  0  0  0  0
   32.3305   36.5831   -9.7009 C   0  0  0  0  0  0  0  0  0  0  0  0
   30.8091   37.0030   -7.7126 C   0  0  0  0  0  0  0  0  0  0  0  0
   28.7072   36.3819   -8.9570 C   0  0  0  0  0  0  0  0  0  0  0  0
   30.0187   35.8705   -8.3775 C   0  0  0  0  0  0  0  0  0  0  0  0
   36.1202   41.2716   -5.6922 C   0  0  0  0  0  0  0  0  0  0  0  0
   35.6302   42.7294   -5.8467 C   0  0  0  0  0  0  0  0  0  0  0  0
   34.2819   42.9783   -7.0384 S   0  0  0  0  0  0  0  0  0  0  0  0
   34.7103   42.6412   -8.2844 H   0  0  0  0  0  0  0  0  0  0  0  0
   36.8993   41.0090   -4.3810 C   0  0  0  0  0  0  0  0  0  0  0  0
   36.7486   42.0436   -3.2928 C   0  0  0  0  0  0  0  0  0  0  0  0
   37.6217   43.1384   -3.2206 C   0  0  0  0  0  0  0  0  0  0  0  0
   37.4925   44.0834   -2.2014 C   0  0  0  0  0  0  0  0  0  0  0  0
   36.4955   43.9406   -1.2390 C   0  0  0  0  0  0  0  0  0  0  0  0
   35.6292   42.8510   -1.2932 C   0  0  0  0  0  0  0  0  0  0  0  0
   35.7569   41.9048   -2.3117 C   0  0  0  0  0  0  0  0  0  0  0  0
 11 12  1  0
 12 10  1  0
 10  7  1  0
  7  8  1  0
  7  9  1  0
  7  6  1  0
  6  5  1  0
  5  1  1  0
  1  2  2  0
  1  3  1  0
  3 13  1  0
 13 14  1  0
 14 15  1  0
 13 17  1  0
 17 18  1  0
 18 19  2  0
 19 20  1  0
 20 21  2  0
 21 22  1  0
 22 23  2  0
 23 18  1  0
  3  4  1  0
 15 16  1  0
M  END
> <minimizedAffinity>
-5.34587

> <CNNscore>
0.7984166145

> <CNNaffinity>
6.2065520287

> <CNN_VS>
4.9554142952

> <CNNaffinity_variance>
0.5435475707

$$$$



 23 23  0  0  0  0  0  0  0  0999 V2000
   35.9720   42.1013   -5.5283 C   0  0  0  0  0  0  0  0  0  0  0  0
   36.4920   43.0550   -6.0935 O   0  0  0  0  0  0  0  0  0  0  0  0
   35.2837   41.1090   -6.1965 N   0  0  0  0  0  0  0  0  0  0  0  0
   34.8558   40.3909   -5.6764 H   0  0  0  0  0  0  0  0  0  0  0  0
   36.0144   41.8769   -4.0268 C   0  0  0  0  0  0  0  0  0  0  0  0
   36.8735   42.9248   -3.3135 C   0  0  0  0  0  0  0  0  0  0  0  0
   36.5558   43.1428   -1.8082 C   0  0  0  0  0  0  0  0  0  0  0  0
   36.3619   44.6473   -1.5214 C   0  0  0  0  0  0  0  0  0  0  0  0
   35.2201   42.4348   -1.4957 C   0  0  0  0  0  0  0  0  0  0  0  0
   37.6723   42.6149   -0.8644 C   0  0  0  0  0  0  0  0  0  0  0  0
   37.9480   42.4747    1.6370 C   0  0  0  0  0  0  0  0  0  0  0  0
   37.1883   41.9474    0.4277 C   0  0  0  0  0  0  0  0  0  0  0  0
   35.1705   41.0930   -7.6679 C   0  0  0  0  0  0  0  0  0  0  0  0
   35.4308   39.6579   -8.1798 C   0  0  0  0  0  0  0  0  0  0  0  0
   34.2590   38.3969   -7.5993 S   0  0  0  0  0  0  0  0  0  0  0  0
   34.3467   38.2850   -6.2468 H   0  0  0  0  0  0  0  0  0  0  0  0
   33.7791   41.6515   -8.0519 C   0  0  0  0  0  0  0  0  0  0  0  0
   33.6279   42.1622   -9.4638 C   0  0  0  0  0  0  0  0  0  0  0  0
   33.7836   43.5257   -9.7519 C   0  0  0  0  0  0  0  0  0  0  0  0
   33.6237   43.9985  -11.0555 C   0  0  0  0  0  0  0  0  0  0  0  0
   33.2987   43.1162  -12.0834 C   0  0  0  0  0  0  0  0  0  0  0  0
   33.1301   41.7611  -11.8078 C   0  0  0  0  0  0  0  0  0  0  0  0
   33.2894   41.2864  -10.5047 C   0  0  0  0  0  0  0  0  0  0  0  0
 11 12  1  0
 12 10  1  0
 10  7  1  0
  7  8  1  0
  7  9  1  0
  7  6  1  0
  6  5  1  0
  5  1  1  0
  1  2  2  0
  1  3  1  0
  3 13  1  0
 13 14  1  0
 14 15  1  0
 13 17  1  0
 17 18  1  0
 18 19  2  0
 19 20  1  0
 20 21  2  0
 21 22  1  0
 22 23  2  0
 23 18  1  0
  3  4  1  0
 15 16  1  0
M  END
> <minimizedAffinity>
-6.81993

> <CNNscore>
0.7370884418

> <CNNaffinity>
5.7591614723

> <CNN_VS>
4.2450113297

> <CNNaffinity_variance>
0.3602720201

$$$$



 23 23  0  0  0  0  0  0  0  0999 V2000
   38.3751   38.5778   -2.5857 C   0  0  0  0  0  0  0  0  0  0  0  0
   37.9172   37.9017   -3.4983 O   0  0  0  0  0  0  0  0  0  0  0  0
   39.2385   38.0770   -1.6325 N   0  0  0  0  0  0  0  0  0  0  0  0
   39.5379   38.6657   -0.9024 H   0  0  0  0  0  0  0  0  0  0  0  0
   38.0628   40.0497   -2.3790 C   0  0  0  0  0  0  0  0  0  0  0  0
   37.3107   40.2986   -1.0685 C   0  0  0  0  0  0  0  0  0  0  0  0
   36.9396   41.7791   -0.7773 C   0  0  0  0  0  0  0  0  0  0  0  0
   35.4441   42.0179   -1.0769 C   0  0  0  0  0  0  0  0  0  0  0  0
   37.1583   42.0378    0.7288 C   0  0  0  0  0  0  0  0  0  0  0  0
   37.7647   42.7936   -1.6176 C   0  0  0  0  0  0  0  0  0  0  0  0
   37.7810   45.2466   -1.0388 C   0  0  0  0  0  0  0  0  0  0  0  0
   37.1010   44.1549   -1.8533 C   0  0  0  0  0  0  0  0  0  0  0  0
   39.7259   36.6847   -1.6757 C   0  0  0  0  0  0  0  0  0  0  0  0
   40.8739   36.5823   -2.7056 C   0  0  0  0  0  0  0  0  0  0  0  0
   41.9682   38.0291   -2.8020 S   0  0  0  0  0  0  0  0  0  0  0  0
   41.2538   39.1113   -3.2119 H   0  0  0  0  0  0  0  0  0  0  0  0
   40.1335   36.2703   -0.2413 C   0  0  0  0  0  0  0  0  0  0  0  0
   39.8744   34.8336    0.1408 C   0  0  0  0  0  0  0  0  0  0  0  0
   38.5636   34.3503    0.2605 C   0  0  0  0  0  0  0  0  0  0  0  0
   38.3265   33.0261    0.6333 C   0  0  0  0  0  0  0  0  0  0  0  0
   39.3956   32.1732    0.8984 C   0  0  0  0  0  0  0  0  0  0  0  0
   40.7023   32.6447    0.7941 C   0  0  0  0  0  0  0  0  0  0  0  0
   40.9414   33.9687    0.4215 C   0  0  0  0  0  0  0  0  0  0  0  0
 11 12  1  0
 12 10  1  0
 10  7  1  0
  7  8  1  0
  7  9  1  0
  7  6  1  0
  6  5  1  0
  5  1  1  0
  1  2  2  0
  1  3  1  0
  3 13  1  0
 13 14  1  0
 14 15  1  0
 13 17  1  0
 17 18  1  0
 18 19  2  0
 19 20  1  0
 20 21  2  0
 21 22  1  0
 22 23  2  0
 23 18  1  0
  3  4  1  0
 15 16  1  0
M  END
> <minimizedAffinity>
-5.67634

> <CNNscore>
0.6428837776

> <CNNaffinity>
4.8478512764

> <CNN_VS>
3.1166050434

> <CNNaffinity_variance>
0.5363294482

$$$$



 23 23  0  0  0  0  0  0  0  0999 V2000
   35.5620   41.7698   -6.4168 C   0  0  0  0  0  0  0  0  0  0  0  0
   36.3013   42.5934   -6.9407 O   0  0  0  0  0  0  0  0  0  0  0  0
   35.8005   41.2222   -5.1725 N   0  0  0  0  0  0  0  0  0  0  0  0
   35.1860   40.5349   -4.8271 H   0  0  0  0  0  0  0  0  0  0  0  0
   34.2887   41.2429   -7.0553 C   0  0  0  0  0  0  0  0  0  0  0  0
   34.3606   41.2674   -8.5848 C   0  0  0  0  0  0  0  0  0  0  0  0
   33.2224   42.0476   -9.2988 C   0  0  0  0  0  0  0  0  0  0  0  0
   31.9742   41.1500   -9.4400 C   0  0  0  0  0  0  0  0  0  0  0  0
   32.8337   43.2460   -8.4067 C   0  0  0  0  0  0  0  0  0  0  0  0
   33.6177   42.5452  -10.7173 C   0  0  0  0  0  0  0  0  0  0  0  0
   32.8846   42.6678  -13.1256 C   0  0  0  0  0  0  0  0  0  0  0  0
   32.9818   41.7869  -11.8878 C   0  0  0  0  0  0  0  0  0  0  0  0
   36.9499   41.6368   -4.3448 C   0  0  0  0  0  0  0  0  0  0  0  0
   36.5602   42.8911   -3.5299 C   0  0  0  0  0  0  0  0  0  0  0  0
   36.7326   42.7368   -1.7281 S   0  0  0  0  0  0  0  0  0  0  0  0
   35.8880   41.7729   -1.2728 H   0  0  0  0  0  0  0  0  0  0  0  0
   37.3772   40.4319   -3.4725 C   0  0  0  0  0  0  0  0  0  0  0  0
   38.4496   39.5371   -4.0441 C   0  0  0  0  0  0  0  0  0  0  0  0
   38.1606   38.6561   -5.0960 C   0  0  0  0  0  0  0  0  0  0  0  0
   39.1495   37.8154   -5.6097 C   0  0  0  0  0  0  0  0  0  0  0  0
   40.4348   37.8398   -5.0730 C   0  0  0  0  0  0  0  0  0  0  0  0
   40.7313   38.7024   -4.0200 C   0  0  0  0  0  0  0  0  0  0  0  0
   39.7436   39.5439   -3.5049 C   0  0  0  0  0  0  0  0  0  0  0  0
 11 12  1  0
 12 10  1  0
 10  7  1  0
  7  8  1  0
  7  9  1  0
  7  6  1  0
  6  5  1  0
  5  1  1  0
  1  2  2  0
  1  3  1  0
  3 13  1  0
 13 14  1  0
 14 15  1  0
 13 17  1  0
 17 18  1  0
 18 19  2  0
 19 20  1  0
 20 21  2  0
 21 22  1  0
 22 23  2  0
 23 18  1  0
  3  4  1  0
 15 16  1  0
M  END
> <minimizedAffinity>
-5.46992

> <CNNscore>
0.5702200532

> <CNNaffinity>
5.8274693489

> <CNN_VS>
3.3229398727

> <CNNaffinity_variance>
0.0024957743

$$$$
