


 30 31  0  0  0  0  0  0  0  0999 V2000
  -23.8253    6.4548  -14.9158 C   0  0  0  0  0  0  0  0  0  0  0  0
  -22.4814    6.5596  -15.2882 C   0  0  0  0  0  0  0  0  0  0  0  0
  -21.5899    7.3275  -14.5311 C   0  0  0  0  0  0  0  0  0  0  0  0
  -22.0334    7.9924  -13.3895 C   0  0  0  0  0  0  0  0  0  0  0  0
  -20.8316    9.0522  -12.3918 Br  0  0  0  0  0  0  0  0  0  0  0  0
  -23.3595    7.8880  -12.9837 C   0  0  0  0  0  0  0  0  0  0  0  0
  -24.2443    7.0977  -13.7292 C   0  0  0  0  0  0  0  0  0  0  0  0
  -25.6468    6.9546  -13.2669 C   0  0  0  0  0  0  0  0  0  0  0  0
  -25.8823    6.0521  -12.4643 O   0  0  0  0  0  0  0  0  0  0  0  0
  -26.6064    7.8695  -13.7012 N   0  0  0  0  0  0  0  0  0  0  0  0
  -26.2921    9.1425  -14.3618 C   0  0  0  0  0  0  0  0  0  0  0  0
  -27.3647   10.2206  -14.1253 C   0  0  0  0  0  0  0  0  0  0  0  0
  -26.8328   11.6048  -14.4908 C   0  0  0  0  0  0  0  0  0  0  0  0
  -27.8242   10.1723  -12.6631 C   0  0  0  0  0  0  0  0  0  0  0  0
  -28.4207    8.7980  -12.2953 C   0  0  0  0  0  0  0  0  0  0  0  0
  -28.0686    8.4406  -10.8483 C   0  0  0  0  0  0  0  0  0  0  0  0
  -27.9886    7.6921  -13.2724 C   0  0  0  0  0  0  0  0  0  0  0  0
  -25.4376    6.2101  -16.8323 C   0  0  0  0  0  0  0  0  0  0  0  0
  -25.1933    7.2438  -17.4459 O   0  0  0  0  0  0  0  0  0  0  0  0
  -24.7830    5.7658  -15.6982 N   0  0  0  0  0  0  0  0  0  0  0  0
  -25.0114    4.8567  -15.3974 H   0  0  0  0  0  0  0  0  0  0  0  0
  -26.5004    5.2169  -17.2799 C   0  0  0  0  0  0  0  0  0  0  0  0
  -26.0958    4.3657  -18.4872 C   0  0  0  0  0  0  0  0  0  0  0  0
  -25.6048    2.9710  -18.0810 C   0  0  0  0  0  0  0  0  0  0  0  0
  -24.4030    2.3878  -18.8832 C   0  0  0  0  0  0  0  0  0  0  0  0
  -24.6914    2.3964  -20.3945 C   0  0  0  0  0  0  0  0  0  0  0  0
  -24.2697    0.9036  -18.4498 C   0  0  0  0  0  0  0  0  0  0  0  0
  -23.0597    3.0935  -18.5324 C   0  0  0  0  0  0  0  0  0  0  0  0
  -20.6537    2.4711  -18.9556 C   0  0  0  0  0  0  0  0  0  0  0  0
  -21.8884    2.1997  -18.1045 C   0  0  0  0  0  0  0  0  0  0  0  0
 29 30  1  0
 30 28  1  0
 28 25  1  0
 25 26  1  0
 25 27  1  0
 25 24  1  0
 24 23  1  0
 23 22  1  0
 22 18  1  0
 18 19  2  0
 18 20  1  0
 20  1  1  0
  1  2  2  0
  2  3  1  0
  3  4  2  0
  4  5  1  0
  4  6  1  0
  6  7  2  0
  7  8  1  0
  8  9  2  0
  8 10  1  0
 10 11  1  0
 11 12  1  0
 12 13  1  0
 12 14  1  0
 14 15  1  0
 15 16  1  0
 15 17  1  0
  7  1  1  0
 17 10  1  0
 20 21  1  0
M  END
> <minimizedAffinity>
-6.16216

> <CNNscore>
0.7881619334

> <CNNaffinity>
6.2373251915

> <CNN_VS>
4.9160223007

> <CNNaffinity_variance>
0.1286215782

$$$$



 30 31  0  0  0  0  0  0  0  0999 V2000
  -24.2505    7.2096  -14.2567 C   0  0  0  0  0  0  0  0  0  0  0  0
  -23.0797    6.5675  -13.8409 C   0  0  0  0  0  0  0  0  0  0  0  0
  -21.9856    7.3082  -13.3805 C   0  0  0  0  0  0  0  0  0  0  0  0
  -22.0552    8.6990  -13.3252 C   0  0  0  0  0  0  0  0  0  0  0  0
  -20.5634    9.6925  -12.7333 Br  0  0  0  0  0  0  0  0  0  0  0  0
  -23.2148    9.3624  -13.7118 C   0  0  0  0  0  0  0  0  0  0  0  0
  -24.3179    8.6169  -14.1482 C   0  0  0  0  0  0  0  0  0  0  0  0
  -25.5670    9.3274  -14.5174 C   0  0  0  0  0  0  0  0  0  0  0  0
  -25.9438    9.2274  -15.6846 O   0  0  0  0  0  0  0  0  0  0  0  0
  -26.2816   10.0103  -13.5327 N   0  0  0  0  0  0  0  0  0  0  0  0
  -26.0537    9.8535  -12.0909 C   0  0  0  0  0  0  0  0  0  0  0  0
  -27.3153   10.1255  -11.2523 C   0  0  0  0  0  0  0  0  0  0  0  0
  -27.1483    9.5910   -9.8315 C   0  0  0  0  0  0  0  0  0  0  0  0
  -28.5323    9.4963  -11.9411 C   0  0  0  0  0  0  0  0  0  0  0  0
  -28.7505   10.0712  -13.3559 C   0  0  0  0  0  0  0  0  0  0  0  0
  -29.2753    8.9797  -14.2933 C   0  0  0  0  0  0  0  0  0  0  0  0
  -27.4844   10.7388  -13.9179 C   0  0  0  0  0  0  0  0  0  0  0  0
  -26.1809    5.5965  -14.1961 C   0  0  0  0  0  0  0  0  0  0  0  0
  -26.1982    5.3342  -12.9980 O   0  0  0  0  0  0  0  0  0  0  0  0
  -25.3478    6.5107  -14.8145 N   0  0  0  0  0  0  0  0  0  0  0  0
  -25.5422    6.6989  -15.7611 H   0  0  0  0  0  0  0  0  0  0  0  0
  -27.1415    4.9640  -15.1928 C   0  0  0  0  0  0  0  0  0  0  0  0
  -26.5229    3.8473  -16.0392 C   0  0  0  0  0  0  0  0  0  0  0  0
  -27.5190    2.7207  -16.3388 C   0  0  0  0  0  0  0  0  0  0  0  0
  -27.5540    2.1842  -17.8013 C   0  0  0  0  0  0  0  0  0  0  0  0
  -26.2742    1.3969  -18.1319 C   0  0  0  0  0  0  0  0  0  0  0  0
  -27.5754    3.4330  -18.7225 C   0  0  0  0  0  0  0  0  0  0  0  0
  -28.8459    1.3676  -18.1008 C   0  0  0  0  0  0  0  0  0  0  0  0
  -30.5216    0.4589  -16.4510 C   0  0  0  0  0  0  0  0  0  0  0  0
  -29.1862    0.2172  -17.1444 C   0  0  0  0  0  0  0  0  0  0  0  0
 29 30  1  0
 30 28  1  0
 28 25  1  0
 25 26  1  0
 25 27  1  0
 25 24  1  0
 24 23  1  0
 23 22  1  0
 22 18  1  0
 18 19  2  0
 18 20  1  0
 20  1  1  0
  1  2  2  0
  2  3  1  0
  3  4  2  0
  4  5  1  0
  4  6  1  0
  6  7  2  0
  7  8  1  0
  8  9  2  0
  8 10  1  0
 10 11  1  0
 11 12  1  0
 12 13  1  0
 12 14  1  0
 14 15  1  0
 15 16  1  0
 15 17  1  0
  7  1  1  0
 17 10  1  0
 20 21  1  0
M  END
> <minimizedAffinity>
-5.55545

> <CNNscore>
0.7766832709

> <CNNaffinity>
6.1585769653

> <CNN_VS>
4.7832636833

> <CNNaffinity_variance>
0.0158351939

$$$$



 30 31  0  0  0  0  0  0  0  0999 V2000
  -24.1495    6.6129  -14.2901 C   0  0  0  0  0  0  0  0  0  0  0  0
  -22.8982    6.5375  -14.9102 C   0  0  0  0  0  0  0  0  0  0  0  0
  -21.8367    7.3372  -14.4728 C   0  0  0  0  0  0  0  0  0  0  0  0
  -22.0153    8.2154  -13.4055 C   0  0  0  0  0  0  0  0  0  0  0  0
  -20.5874    9.3139  -12.8425 Br  0  0  0  0  0  0  0  0  0  0  0  0
  -23.2427    8.2950  -12.7564 C   0  0  0  0  0  0  0  0  0  0  0  0
  -24.2966    7.4746  -13.1799 C   0  0  0  0  0  0  0  0  0  0  0  0
  -25.5902    7.5321  -12.4555 C   0  0  0  0  0  0  0  0  0  0  0  0
  -25.7099    6.8111  -11.4655 O   0  0  0  0  0  0  0  0  0  0  0  0
  -26.5713    8.4292  -12.8787 N   0  0  0  0  0  0  0  0  0  0  0  0
  -26.3299    9.5324  -13.8168 C   0  0  0  0  0  0  0  0  0  0  0  0
  -27.2861   10.7195  -13.6039 C   0  0  0  0  0  0  0  0  0  0  0  0
  -26.7699   11.9671  -14.3175 C   0  0  0  0  0  0  0  0  0  0  0  0
  -27.4597   10.9729  -12.1015 C   0  0  0  0  0  0  0  0  0  0  0  0
  -28.0384    9.7407  -11.3759 C   0  0  0  0  0  0  0  0  0  0  0  0
  -27.4334    9.6220   -9.9740 C   0  0  0  0  0  0  0  0  0  0  0  0
  -27.8529    8.4454  -12.1836 C   0  0  0  0  0  0  0  0  0  0  0  0
  -25.5610    5.4935  -16.0471 C   0  0  0  0  0  0  0  0  0  0  0  0
  -24.8042    5.5761  -17.0089 O   0  0  0  0  0  0  0  0  0  0  0  0
  -25.2763    5.8925  -14.7541 N   0  0  0  0  0  0  0  0  0  0  0  0
  -25.9402    5.6444  -14.0708 H   0  0  0  0  0  0  0  0  0  0  0  0
  -26.9482    4.8742  -16.1399 C   0  0  0  0  0  0  0  0  0  0  0  0
  -26.9489    3.3877  -16.5092 C   0  0  0  0  0  0  0  0  0  0  0  0
  -27.0425    3.1614  -18.0228 C   0  0  0  0  0  0  0  0  0  0  0  0
  -26.1975    1.9924  -18.6121 C   0  0  0  0  0  0  0  0  0  0  0  0
  -26.6691    0.6362  -18.0592 C   0  0  0  0  0  0  0  0  0  0  0  0
  -24.7444    2.2111  -18.1132 C   0  0  0  0  0  0  0  0  0  0  0  0
  -26.1595    2.0165  -20.1689 C   0  0  0  0  0  0  0  0  0  0  0  0
  -28.3490    2.1851  -21.4071 C   0  0  0  0  0  0  0  0  0  0  0  0
  -27.2586    1.2438  -20.9097 C   0  0  0  0  0  0  0  0  0  0  0  0
 29 30  1  0
 30 28  1  0
 28 25  1  0
 25 26  1  0
 25 27  1  0
 25 24  1  0
 24 23  1  0
 23 22  1  0
 22 18  1  0
 18 19  2  0
 18 20  1  0
 20  1  1  0
  1  2  2  0
  2  3  1  0
  3  4  2  0
  4  5  1  0
  4  6  1  0
  6  7  2  0
  7  8  1  0
  8  9  2  0
  8 10  1  0
 10 11  1  0
 11 12  1  0
 12 13  1  0
 12 14  1  0
 14 15  1  0
 15 16  1  0
 15 17  1  0
  7  1  1  0
 17 10  1  0
 20 21  1  0
M  END
> <minimizedAffinity>
-5.65712

> <CNNscore>
0.7465994358

> <CNNaffinity>
6.2390036583

> <CNN_VS>
4.6580367088

> <CNNaffinity_variance>
0.0170955509

$$$$



 30 31  0  0  0  0  0  0  0  0999 V2000
  -24.9655    7.1253  -14.3931 C   0  0  0  0  0  0  0  0  0  0  0  0
  -23.8056    6.9787  -15.1606 C   0  0  0  0  0  0  0  0  0  0  0  0
  -22.5981    7.5494  -14.7433 C   0  0  0  0  0  0  0  0  0  0  0  0
  -22.5383    8.2665  -13.5498 C   0  0  0  0  0  0  0  0  0  0  0  0
  -20.9130    9.0604  -13.0102 Br  0  0  0  0  0  0  0  0  0  0  0  0
  -23.6713    8.4094  -12.7561 C   0  0  0  0  0  0  0  0  0  0  0  0
  -24.8730    7.8153  -13.1635 C   0  0  0  0  0  0  0  0  0  0  0  0
  -26.0673    7.9338  -12.2910 C   0  0  0  0  0  0  0  0  0  0  0  0
  -26.1266    7.1825  -11.3183 O   0  0  0  0  0  0  0  0  0  0  0  0
  -27.0203    8.9148  -12.5665 N   0  0  0  0  0  0  0  0  0  0  0  0
  -26.8058   10.0363  -13.4893 C   0  0  0  0  0  0  0  0  0  0  0  0
  -27.6397   11.2780  -13.1267 C   0  0  0  0  0  0  0  0  0  0  0  0
  -27.1164   12.5147  -13.8541 C   0  0  0  0  0  0  0  0  0  0  0  0
  -27.6208   11.4803  -11.6067 C   0  0  0  0  0  0  0  0  0  0  0  0
  -28.2034   10.2629  -10.8596 C   0  0  0  0  0  0  0  0  0  0  0  0
  -27.4527   10.0436   -9.5429 C   0  0  0  0  0  0  0  0  0  0  0  0
  -28.2092    8.9925  -11.7259 C   0  0  0  0  0  0  0  0  0  0  0  0
  -26.8284    5.4376  -14.5124 C   0  0  0  0  0  0  0  0  0  0  0  0
  -26.4233    4.6191  -13.6935 O   0  0  0  0  0  0  0  0  0  0  0  0
  -26.2277    6.6451  -14.8177 N   0  0  0  0  0  0  0  0  0  0  0  0
  -26.7422    7.2461  -15.4037 H   0  0  0  0  0  0  0  0  0  0  0  0
  -28.1193    5.2504  -15.2964 C   0  0  0  0  0  0  0  0  0  0  0  0
  -29.3807    5.2088  -14.4286 C   0  0  0  0  0  0  0  0  0  0  0  0
  -29.6080    6.5186  -13.6645 C   0  0  0  0  0  0  0  0  0  0  0  0
  -30.9126    7.3055  -13.9912 C   0  0  0  0  0  0  0  0  0  0  0  0
  -31.7065    6.6168  -15.1149 C   0  0  0  0  0  0  0  0  0  0  0  0
  -30.4626    8.6898  -14.5293 C   0  0  0  0  0  0  0  0  0  0  0  0
  -31.7809    7.5628  -12.7243 C   0  0  0  0  0  0  0  0  0  0  0  0
  -33.7540    9.1275  -12.8453 C   0  0  0  0  0  0  0  0  0  0  0  0
  -32.2771    8.9961  -12.4929 C   0  0  0  0  0  0  0  0  0  0  0  0
 29 30  1  0
 30 28  1  0
 28 25  1  0
 25 26  1  0
 25 27  1  0
 25 24  1  0
 24 23  1  0
 23 22  1  0
 22 18  1  0
 18 19  2  0
 18 20  1  0
 20  1  1  0
  1  2  2  0
  2  3  1  0
  3  4  2  0
  4  5  1  0
  4  6  1  0
  6  7  2  0
  7  8  1  0
  8  9  2  0
  8 10  1  0
 10 11  1  0
 11 12  1  0
 12 13  1  0
 12 14  1  0
 14 15  1  0
 15 16  1  0
 15 17  1  0
  7  1  1  0
 17 10  1  0
 20 21  1  0
M  END
> <minimizedAffinity>
-5.15056

> <CNNscore>
0.7149120569

> <CNNaffinity>
5.9999670982

> <CNN_VS>
4.2894487381

> <CNNaffinity_variance>
0.0570416264

$$$$



 30 31  0  0  0  0  0  0  0  0999 V2000
  -24.6992    6.9747  -14.2675 C   0  0  0  0  0  0  0  0  0  0  0  0
  -23.5121    6.8094  -14.9882 C   0  0  0  0  0  0  0  0  0  0  0  0
  -22.3345    7.4430  -14.5766 C   0  0  0  0  0  0  0  0  0  0  0  0
  -22.3319    8.2428  -13.4353 C   0  0  0  0  0  0  0  0  0  0  0  0
  -20.7467    9.1197  -12.9051 Br  0  0  0  0  0  0  0  0  0  0  0  0
  -23.4928    8.4070  -12.6874 C   0  0  0  0  0  0  0  0  0  0  0  0
  -24.6644    7.7509  -13.0872 C   0  0  0  0  0  0  0  0  0  0  0  0
  -25.8883    7.8946  -12.2609 C   0  0  0  0  0  0  0  0  0  0  0  0
  -25.9618    7.2045  -11.2447 O   0  0  0  0  0  0  0  0  0  0  0  0
  -26.8540    8.8326  -12.6270 N   0  0  0  0  0  0  0  0  0  0  0  0
  -26.6355    9.8990  -13.6122 C   0  0  0  0  0  0  0  0  0  0  0  0
  -27.5084   11.1402  -13.3547 C   0  0  0  0  0  0  0  0  0  0  0  0
  -26.9902   12.3412  -14.1428 C   0  0  0  0  0  0  0  0  0  0  0  0
  -27.5427   11.4377  -11.8508 C   0  0  0  0  0  0  0  0  0  0  0  0
  -28.1213   10.2557  -11.0460 C   0  0  0  0  0  0  0  0  0  0  0  0
  -27.4083   10.1379   -9.6958 C   0  0  0  0  0  0  0  0  0  0  0  0
  -28.0706    8.9337  -11.8298 C   0  0  0  0  0  0  0  0  0  0  0  0
  -26.7593    6.8770  -15.7094 C   0  0  0  0  0  0  0  0  0  0  0  0
  -26.4903    7.7572  -16.5202 O   0  0  0  0  0  0  0  0  0  0  0  0
  -25.9338    6.4293  -14.6943 N   0  0  0  0  0  0  0  0  0  0  0  0
  -26.2435    5.6315  -14.2077 H   0  0  0  0  0  0  0  0  0  0  0  0
  -28.0657    6.0968  -15.7419 C   0  0  0  0  0  0  0  0  0  0  0  0
  -27.8912    4.5876  -15.9363 C   0  0  0  0  0  0  0  0  0  0  0  0
  -29.2286    3.8662  -16.1418 C   0  0  0  0  0  0  0  0  0  0  0  0
  -29.1877    2.5202  -16.9257 C   0  0  0  0  0  0  0  0  0  0  0  0
  -28.0404    2.5124  -17.9508 C   0  0  0  0  0  0  0  0  0  0  0  0
  -30.5165    2.4406  -17.7234 C   0  0  0  0  0  0  0  0  0  0  0  0
  -29.1436    1.2851  -15.9779 C   0  0  0  0  0  0  0  0  0  0  0  0
  -30.6185    1.4000  -13.9366 C   0  0  0  0  0  0  0  0  0  0  0  0
  -30.4681    0.8384  -15.3454 C   0  0  0  0  0  0  0  0  0  0  0  0
 29 30  1  0
 30 28  1  0
 28 25  1  0
 25 26  1  0
 25 27  1  0
 25 24  1  0
 24 23  1  0
 23 22  1  0
 22 18  1  0
 18 19  2  0
 18 20  1  0
 20  1  1  0
  1  2  2  0
  2  3  1  0
  3  4  2  0
  4  5  1  0
  4  6  1  0
  6  7  2  0
  7  8  1  0
  8  9  2  0
  8 10  1  0
 10 11  1  0
 11 12  1  0
 12 13  1  0
 12 14  1  0
 14 15  1  0
 15 16  1  0
 15 17  1  0
  7  1  1  0
 17 10  1  0
 20 21  1  0
M  END
> <minimizedAffinity>
-5.24365

> <CNNscore>
0.6070377231

> <CNNaffinity>
6.0657639503

> <CNN_VS>
3.6821475029

> <CNNaffinity_variance>
0.0012141016

$$$$



 30 31  0  0  0  0  0  0  0  0999 V2000
  -24.7404    7.5667  -13.9146 C   0  0  0  0  0  0  0  0  0  0  0  0
  -23.6886    6.7255  -13.5379 C   0  0  0  0  0  0  0  0  0  0  0  0
  -22.4362    7.2546  -13.2074 C   0  0  0  0  0  0  0  0  0  0  0  0
  -22.2263    8.6318  -13.2440 C   0  0  0  0  0  0  0  0  0  0  0  0
  -20.5248    9.3352  -12.8279 Br  0  0  0  0  0  0  0  0  0  0  0  0
  -23.2606    9.4931  -13.5938 C   0  0  0  0  0  0  0  0  0  0  0  0
  -24.5208    8.9625  -13.8994 C   0  0  0  0  0  0  0  0  0  0  0  0
  -25.6319    9.8889  -14.2291 C   0  0  0  0  0  0  0  0  0  0  0  0
  -25.9583    9.9728  -15.4125 O   0  0  0  0  0  0  0  0  0  0  0  0
  -26.2892   10.5620  -13.1987 N   0  0  0  0  0  0  0  0  0  0  0  0
  -26.1617   10.2185  -11.7770 C   0  0  0  0  0  0  0  0  0  0  0  0
  -27.4117   10.5861  -10.9578 C   0  0  0  0  0  0  0  0  0  0  0  0
  -27.3984    9.8830   -9.6022 C   0  0  0  0  0  0  0  0  0  0  0  0
  -28.6703   10.2255  -11.7563 C   0  0  0  0  0  0  0  0  0  0  0  0
  -28.7285   10.9753  -13.1032 C   0  0  0  0  0  0  0  0  0  0  0  0
  -29.3578   10.0827  -14.1768 C   0  0  0  0  0  0  0  0  0  0  0  0
  -27.3512   11.5007  -13.5404 C   0  0  0  0  0  0  0  0  0  0  0  0
  -26.7271    6.0252  -13.8175 C   0  0  0  0  0  0  0  0  0  0  0  0
  -26.4736    5.4206  -12.7808 O   0  0  0  0  0  0  0  0  0  0  0  0
  -25.9958    7.0738  -14.3447 N   0  0  0  0  0  0  0  0  0  0  0  0
  -26.3985    7.5352  -15.1154 H   0  0  0  0  0  0  0  0  0  0  0  0
  -27.9518    5.7243  -14.6695 C   0  0  0  0  0  0  0  0  0  0  0  0
  -27.8235    6.1639  -16.1311 C   0  0  0  0  0  0  0  0  0  0  0  0
  -27.3452    5.0281  -17.0434 C   0  0  0  0  0  0  0  0  0  0  0  0
  -26.0362    5.2789  -17.8506 C   0  0  0  0  0  0  0  0  0  0  0  0
  -26.0697    6.6513  -18.5451 C   0  0  0  0  0  0  0  0  0  0  0  0
  -25.9995    4.2007  -18.9662 C   0  0  0  0  0  0  0  0  0  0  0  0
  -24.7590    5.0863  -16.9805 C   0  0  0  0  0  0  0  0  0  0  0  0
  -22.2950    5.3307  -17.4544 C   0  0  0  0  0  0  0  0  0  0  0  0
  -23.6033    6.0707  -17.2031 C   0  0  0  0  0  0  0  0  0  0  0  0
 29 30  1  0
 30 28  1  0
 28 25  1  0
 25 26  1  0
 25 27  1  0
 25 24  1  0
 24 23  1  0
 23 22  1  0
 22 18  1  0
 18 19  2  0
 18 20  1  0
 20  1  1  0
  1  2  2  0
  2  3  1  0
  3  4  2  0
  4  5  1  0
  4  6  1  0
  6  7  2  0
  7  8  1  0
  8  9  2  0
  8 10  1  0
 10 11  1  0
 11 12  1  0
 12 13  1  0
 12 14  1  0
 14 15  1  0
 15 16  1  0
 15 17  1  0
  7  1  1  0
 17 10  1  0
 20 21  1  0
M  END
> <minimizedAffinity>
-6.48025

> <CNNscore>
0.6028168201

> <CNNaffinity>
5.9105682373

> <CNN_VS>
3.5629899502

> <CNNaffinity_variance>
0.1662273556

$$$$



 30 31  0  0  0  0  0  0  0  0999 V2000
  -24.7944    7.8712  -14.4206 C   0  0  0  0  0  0  0  0  0  0  0  0
  -23.7918    6.9310  -14.1623 C   0  0  0  0  0  0  0  0  0  0  0  0
  -22.5620    7.3294  -13.6270 C   0  0  0  0  0  0  0  0  0  0  0  0
  -22.3262    8.6721  -13.3382 C   0  0  0  0  0  0  0  0  0  0  0  0
  -20.6530    9.2055  -12.6462 Br  0  0  0  0  0  0  0  0  0  0  0  0
  -23.3132    9.6254  -13.5645 C   0  0  0  0  0  0  0  0  0  0  0  0
  -24.5529    9.2204  -14.0766 C   0  0  0  0  0  0  0  0  0  0  0  0
  -25.6169   10.2352  -14.2746 C   0  0  0  0  0  0  0  0  0  0  0  0
  -25.9292   10.4999  -15.4350 O   0  0  0  0  0  0  0  0  0  0  0  0
  -26.2508   10.7872  -13.1609 N   0  0  0  0  0  0  0  0  0  0  0  0
  -26.1512   10.2419  -11.8014 C   0  0  0  0  0  0  0  0  0  0  0  0
  -27.3896   10.5493  -10.9408 C   0  0  0  0  0  0  0  0  0  0  0  0
  -27.4203    9.6630   -9.6976 C   0  0  0  0  0  0  0  0  0  0  0  0
  -28.6569   10.3642  -11.7843 C   0  0  0  0  0  0  0  0  0  0  0  0
  -28.6690   11.2977  -13.0124 C   0  0  0  0  0  0  0  0  0  0  0  0
  -29.3301   10.5954  -14.2020 C   0  0  0  0  0  0  0  0  0  0  0  0
  -27.2651   11.8137  -13.3690 C   0  0  0  0  0  0  0  0  0  0  0  0
  -26.2743    7.3780  -16.3952 C   0  0  0  0  0  0  0  0  0  0  0  0
  -25.4361    7.3756  -17.2907 O   0  0  0  0  0  0  0  0  0  0  0  0
  -26.0183    7.5304  -15.0448 N   0  0  0  0  0  0  0  0  0  0  0  0
  -26.7829    7.3835  -14.4423 H   0  0  0  0  0  0  0  0  0  0  0  0
  -27.7579    7.1572  -16.6534 C   0  0  0  0  0  0  0  0  0  0  0  0
  -28.0626    6.0153  -17.6277 C   0  0  0  0  0  0  0  0  0  0  0  0
  -28.3316    6.5176  -19.0513 C   0  0  0  0  0  0  0  0  0  0  0  0
  -28.0441    5.5211  -20.2141 C   0  0  0  0  0  0  0  0  0  0  0  0
  -29.3219    4.7700  -20.6268 C   0  0  0  0  0  0  0  0  0  0  0  0
  -27.0545    4.4673  -19.6496 C   0  0  0  0  0  0  0  0  0  0  0  0
  -27.3449    6.2095  -21.4235 C   0  0  0  0  0  0  0  0  0  0  0  0
  -27.0464    4.9389  -23.5804 C   0  0  0  0  0  0  0  0  0  0  0  0
  -27.9189    5.9292  -22.8185 C   0  0  0  0  0  0  0  0  0  0  0  0
 29 30  1  0
 30 28  1  0
 28 25  1  0
 25 26  1  0
 25 27  1  0
 25 24  1  0
 24 23  1  0
 23 22  1  0
 22 18  1  0
 18 19  2  0
 18 20  1  0
 20  1  1  0
  1  2  2  0
  2  3  1  0
  3  4  2  0
  4  5  1  0
  4  6  1  0
  6  7  2  0
  7  8  1  0
  8  9  2  0
  8 10  1  0
 10 11  1  0
 11 12  1  0
 12 13  1  0
 12 14  1  0
 14 15  1  0
 15 16  1  0
 15 17  1  0
  7  1  1  0
 17 10  1  0
 20 21  1  0
M  END
> <minimizedAffinity>
-5.90542

> <CNNscore>
0.5530118942

> <CNNaffinity>
5.5797691345

> <CNN_VS>
3.0856788158

> <CNNaffinity_variance>
0.2319725007

$$$$



 30 31  0  0  0  0  0  0  0  0999 V2000
  -24.5368    6.8221  -13.9583 C   0  0  0  0  0  0  0  0  0  0  0  0
  -23.3302    6.6664  -14.6481 C   0  0  0  0  0  0  0  0  0  0  0  0
  -22.1874    7.3703  -14.2530 C   0  0  0  0  0  0  0  0  0  0  0  0
  -22.2393    8.2319  -13.1589 C   0  0  0  0  0  0  0  0  0  0  0  0
  -20.7016    9.2022  -12.6521 Br  0  0  0  0  0  0  0  0  0  0  0  0
  -23.4202    8.3893  -12.4413 C   0  0  0  0  0  0  0  0  0  0  0  0
  -24.5564    7.6638  -12.8234 C   0  0  0  0  0  0  0  0  0  0  0  0
  -25.8009    7.8023  -12.0276 C   0  0  0  0  0  0  0  0  0  0  0  0
  -25.8602    7.1788  -10.9683 O   0  0  0  0  0  0  0  0  0  0  0  0
  -26.8032    8.6656  -12.4709 N   0  0  0  0  0  0  0  0  0  0  0  0
  -26.6174    9.6733  -13.5223 C   0  0  0  0  0  0  0  0  0  0  0  0
  -27.5531   10.8848  -13.3627 C   0  0  0  0  0  0  0  0  0  0  0  0
  -27.0782   12.0545  -14.2220 C   0  0  0  0  0  0  0  0  0  0  0  0
  -27.6295   11.2800  -11.8829 C   0  0  0  0  0  0  0  0  0  0  0  0
  -28.1660   10.1274  -11.0092 C   0  0  0  0  0  0  0  0  0  0  0  0
  -27.4734   10.1348   -9.6433 C   0  0  0  0  0  0  0  0  0  0  0  0
  -28.0378    8.7601  -11.7010 C   0  0  0  0  0  0  0  0  0  0  0  0
  -26.5436    6.5360  -15.4494 C   0  0  0  0  0  0  0  0  0  0  0  0
  -26.2737    7.3524  -16.3242 O   0  0  0  0  0  0  0  0  0  0  0  0
  -25.7398    6.2029  -14.3747 N   0  0  0  0  0  0  0  0  0  0  0  0
  -26.0419    5.4398  -13.8311 H   0  0  0  0  0  0  0  0  0  0  0  0
  -27.8246    5.7142  -15.4551 C   0  0  0  0  0  0  0  0  0  0  0  0
  -28.7562    5.9953  -14.2722 C   0  0  0  0  0  0  0  0  0  0  0  0
  -29.6635    4.8028  -13.9465 C   0  0  0  0  0  0  0  0  0  0  0  0
  -30.2059    4.7102  -12.4887 C   0  0  0  0  0  0  0  0  0  0  0  0
  -29.1029    5.0367  -11.4669 C   0  0  0  0  0  0  0  0  0  0  0  0
  -30.6114    3.2285  -12.2686 C   0  0  0  0  0  0  0  0  0  0  0  0
  -31.4840    5.5747  -12.2773 C   0  0  0  0  0  0  0  0  0  0  0  0
  -32.2885    5.2757  -14.6478 C   0  0  0  0  0  0  0  0  0  0  0  0
  -32.6899    5.2761  -13.1776 C   0  0  0  0  0  0  0  0  0  0  0  0
 29 30  1  0
 30 28  1  0
 28 25  1  0
 25 26  1  0
 25 27  1  0
 25 24  1  0
 24 23  1  0
 23 22  1  0
 22 18  1  0
 18 19  2  0
 18 20  1  0
 20  1  1  0
  1  2  2  0
  2  3  1  0
  3  4  2  0
  4  5  1  0
  4  6  1  0
  6  7  2  0
  7  8  1  0
  8  9  2  0
  8 10  1  0
 10 11  1  0
 11 12  1  0
 12 13  1  0
 12 14  1  0
 14 15  1  0
 15 16  1  0
 15 17  1  0
  7  1  1  0
 17 10  1  0
 20 21  1  0
M  END
> <minimizedAffinity>
-5.22368

> <CNNscore>
0.5492953658

> <CNNaffinity>
5.6784763336

> <CNN_VS>
3.1191606522

> <CNNaffinity_variance>
0.1486640573

$$$$



 30 31  0  0  0  0  0  0  0  0999 V2000
  -25.0453    7.9462  -14.2392 C   0  0  0  0  0  0  0  0  0  0  0  0
  -24.0956    6.9537  -13.9768 C   0  0  0  0  0  0  0  0  0  0  0  0
  -22.8100    7.2945  -13.5425 C   0  0  0  0  0  0  0  0  0  0  0  0
  -22.4645    8.6322  -13.3596 C   0  0  0  0  0  0  0  0  0  0  0  0
  -20.7181    9.0849  -12.8044 Br  0  0  0  0  0  0  0  0  0  0  0  0
  -23.3957    9.6385  -13.5920 C   0  0  0  0  0  0  0  0  0  0  0  0
  -24.6902    9.2933  -14.0022 C   0  0  0  0  0  0  0  0  0  0  0  0
  -25.6921   10.3684  -14.2061 C   0  0  0  0  0  0  0  0  0  0  0  0
  -25.9529   10.6776  -15.3682 O   0  0  0  0  0  0  0  0  0  0  0  0
  -26.3309   10.9265  -13.0983 N   0  0  0  0  0  0  0  0  0  0  0  0
  -26.3036   10.3437  -11.7510 C   0  0  0  0  0  0  0  0  0  0  0  0
  -27.5507   10.6964  -10.9208 C   0  0  0  0  0  0  0  0  0  0  0  0
  -27.6677    9.7830   -9.7024 C   0  0  0  0  0  0  0  0  0  0  0  0
  -28.7985   10.6002  -11.8069 C   0  0  0  0  0  0  0  0  0  0  0  0
  -28.7221   11.5625  -13.0101 C   0  0  0  0  0  0  0  0  0  0  0  0
  -29.3815   10.9259  -14.2371 C   0  0  0  0  0  0  0  0  0  0  0  0
  -27.2822   12.0108  -13.3104 C   0  0  0  0  0  0  0  0  0  0  0  0
  -26.6995    7.5499  -16.0937 C   0  0  0  0  0  0  0  0  0  0  0  0
  -25.9398    7.5506  -17.0567 O   0  0  0  0  0  0  0  0  0  0  0  0
  -26.3268    7.6566  -14.7663 N   0  0  0  0  0  0  0  0  0  0  0  0
  -27.0421    7.5132  -14.1053 H   0  0  0  0  0  0  0  0  0  0  0  0
  -28.2053    7.3768  -16.2311 C   0  0  0  0  0  0  0  0  0  0  0  0
  -28.8138    6.3704  -15.2499 C   0  0  0  0  0  0  0  0  0  0  0  0
  -29.2744    5.0828  -15.9436 C   0  0  0  0  0  0  0  0  0  0  0  0
  -28.8074    3.7378  -15.3105 C   0  0  0  0  0  0  0  0  0  0  0  0
  -29.4890    3.5005  -13.9518 C   0  0  0  0  0  0  0  0  0  0  0  0
  -27.2866    3.8887  -15.0408 C   0  0  0  0  0  0  0  0  0  0  0  0
  -28.9866    2.5335  -16.2816 C   0  0  0  0  0  0  0  0  0  0  0  0
  -28.3730    0.1691  -15.6583 C   0  0  0  0  0  0  0  0  0  0  0  0
  -29.4829    1.2132  -15.6779 C   0  0  0  0  0  0  0  0  0  0  0  0
 29 30  1  0
 30 28  1  0
 28 25  1  0
 25 26  1  0
 25 27  1  0
 25 24  1  0
 24 23  1  0
 23 22  1  0
 22 18  1  0
 18 19  2  0
 18 20  1  0
 20  1  1  0
  1  2  2  0
  2  3  1  0
  3  4  2  0
  4  5  1  0
  4  6  1  0
  6  7  2  0
  7  8  1  0
  8  9  2  0
  8 10  1  0
 10 11  1  0
 11 12  1  0
 12 13  1  0
 12 14  1  0
 14 15  1  0
 15 16  1  0
 15 17  1  0
  7  1  1  0
 17 10  1  0
 20 21  1  0
M  END
> <minimizedAffinity>
-5.67637

> <CNNscore>
0.5443092585

> <CNNaffinity>
5.8262710571

> <CNN_VS>
3.1712932587

> <CNNaffinity_variance>
0.1185428798

$$$$
