


 22 23  0  0  0  0  0  0  0  0999 V2000
   13.1853    7.9305    2.0064 C   0  0  0  0  0  0  0  0  0  0  0  0
   12.6346    7.4337    3.3585 C   0  0  0  0  0  0  0  0  0  0  0  0
   11.1847    7.8681    3.5727 C   0  0  0  0  0  0  0  0  0  0  0  0
   11.0407    9.3889    3.4600 C   0  0  0  0  0  0  0  0  0  0  0  0
   11.5833    9.9001    2.1218 C   0  0  0  0  0  0  0  0  0  0  0  0
   13.0322    9.4605    1.9010 C   0  0  0  0  0  0  0  0  0  0  0  0
   15.1165    6.4843    2.8639 C   0  0  0  0  0  0  0  0  0  0  0  0
   14.6301    7.4178    1.7532 C   0  0  0  0  0  0  0  0  0  0  0  0
   14.8041    6.7376    0.4709 N   0  0  0  0  0  0  0  0  0  0  0  0
   14.2490    5.8819    0.4619 H   0  0  0  0  0  0  0  0  0  0  0  0
   15.7887    6.5055    0.3400 H   0  0  0  0  0  0  0  0  0  0  0  0
    9.6012    9.8460    3.7044 C   0  0  0  0  0  0  0  0  0  0  0  0
    9.3708   10.7279    4.5269 O   0  0  0  0  0  0  0  0  0  0  0  0
    8.6559    9.1892    2.9371 N   0  0  0  0  0  0  0  0  0  0  0  0
    8.9963    8.5027    2.3189 H   0  0  0  0  0  0  0  0  0  0  0  0
    7.2576    9.3913    2.9398 C   0  0  0  0  0  0  0  0  0  0  0  0
    6.6289    9.5067    1.6990 C   0  0  0  0  0  0  0  0  0  0  0  0
    5.2587    9.7054    1.6641 C   0  0  0  0  0  0  0  0  0  0  0  0
    4.4890    9.7952    2.7642 N   0  0  0  0  0  0  0  0  0  0  0  0
    5.1159    9.6810    3.9550 C   0  0  0  0  0  0  0  0  0  0  0  0
    4.0458    9.8050    5.5177 Br  0  0  0  0  0  0  0  0  0  0  0  0
    6.4822    9.4807    4.0923 C   0  0  0  0  0  0  0  0  0  0  0  0
  8  7  1  0
  8  9  1  0
  8  1  1  0
  1  2  1  0
  2  3  1  0
  3  4  1  0
  4 12  1  0
 12 13  2  0
 12 14  1  0
 14 16  1  0
 16 17  2  0
 17 18  1  0
 18 19  2  0
 19 20  1  0
 20 21  1  0
 20 22  2  0
  4  5  1  0
  5  6  1  0
  6  1  1  0
 22 16  1  0
  9 10  1  0
  9 11  1  0
 14 15  1  0
M  END
> <minimizedAffinity>
-8.02299

> <CNNscore>
0.5075995922

> <CNNaffinity>
6.2447052002

> <CNN_VS>
3.1698098183

> <CNNaffinity_variance>
0.1263640076

$$$$



 22 23  0  0  0  0  0  0  0  0999 V2000
   18.3637   16.6846    6.6841 C   0  0  0  0  0  0  0  0  0  0  0  0
   19.3994   15.7507    7.3425 C   0  0  0  0  0  0  0  0  0  0  0  0
   18.8571   15.1194    8.6249 C   0  0  0  0  0  0  0  0  0  0  0  0
   18.3938   16.1916    9.6159 C   0  0  0  0  0  0  0  0  0  0  0  0
   17.3639   17.1291    8.9779 C   0  0  0  0  0  0  0  0  0  0  0  0
   17.9010   17.7567    7.6900 C   0  0  0  0  0  0  0  0  0  0  0  0
   20.4126   17.2326    5.2495 C   0  0  0  0  0  0  0  0  0  0  0  0
   18.8852   17.2595    5.3380 C   0  0  0  0  0  0  0  0  0  0  0  0
   18.3436   16.5914    4.1559 N   0  0  0  0  0  0  0  0  0  0  0  0
   18.6650   15.6235    4.1352 H   0  0  0  0  0  0  0  0  0  0  0  0
   18.6636   17.0739    3.3161 H   0  0  0  0  0  0  0  0  0  0  0  0
   17.8781   15.5795   10.9198 C   0  0  0  0  0  0  0  0  0  0  0  0
   17.0580   16.1899   11.5996 O   0  0  0  0  0  0  0  0  0  0  0  0
   18.4122   14.3387   11.2181 N   0  0  0  0  0  0  0  0  0  0  0  0
   19.0616   13.9767   10.5727 H   0  0  0  0  0  0  0  0  0  0  0  0
   18.1318   13.5319   12.3436 C   0  0  0  0  0  0  0  0  0  0  0  0
   18.7552   13.8755   13.5441 C   0  0  0  0  0  0  0  0  0  0  0  0
   18.5032   13.1063   14.6679 C   0  0  0  0  0  0  0  0  0  0  0  0
   17.6859   12.0371   14.6729 N   0  0  0  0  0  0  0  0  0  0  0  0
   17.0923   11.7210   13.5018 C   0  0  0  0  0  0  0  0  0  0  0  0
   15.9360   10.2159   13.4902 Br  0  0  0  0  0  0  0  0  0  0  0  0
   17.2818   12.4298   12.3239 C   0  0  0  0  0  0  0  0  0  0  0  0
  8  7  1  0
  8  9  1  0
  8  1  1  0
  1  2  1  0
  2  3  1  0
  3  4  1  0
  4 12  1  0
 12 13  2  0
 12 14  1  0
 14 16  1  0
 16 17  2  0
 17 18  1  0
 18 19  2  0
 19 20  1  0
 20 21  1  0
 20 22  2  0
  4  5  1  0
  5  6  1  0
  6  1  1  0
 22 16  1  0
  9 10  1  0
  9 11  1  0
 14 15  1  0
M  END
> <minimizedAffinity>
-4.18742

> <CNNscore>
0.3870460093

> <CNNaffinity>
3.7959511280

> <CNN_VS>
1.4692077637

> <CNNaffinity_variance>
0.2738965154

$$$$



 22 23  0  0  0  0  0  0  0  0999 V2000
   14.5510    7.8489    3.2959 C   0  0  0  0  0  0  0  0  0  0  0  0
   13.9942    7.7407    1.8618 C   0  0  0  0  0  0  0  0  0  0  0  0
   12.5658    8.2774    1.7678 C   0  0  0  0  0  0  0  0  0  0  0  0
   11.6407    7.5639    2.7586 C   0  0  0  0  0  0  0  0  0  0  0  0
   12.1792    7.6613    4.1894 C   0  0  0  0  0  0  0  0  0  0  0  0
   13.6116    7.1319    4.2853 C   0  0  0  0  0  0  0  0  0  0  0  0
   16.3124    6.5533    4.6283 C   0  0  0  0  0  0  0  0  0  0  0  0
   16.0308    7.3810    3.3724 C   0  0  0  0  0  0  0  0  0  0  0  0
   16.4741    6.6163    2.2080 N   0  0  0  0  0  0  0  0  0  0  0  0
   15.9553    5.7394    2.1595 H   0  0  0  0  0  0  0  0  0  0  0  0
   17.4710    6.4174    2.2913 H   0  0  0  0  0  0  0  0  0  0  0  0
   10.1987    8.0648    2.6559 C   0  0  0  0  0  0  0  0  0  0  0  0
    9.6207    8.0471    1.5729 O   0  0  0  0  0  0  0  0  0  0  0  0
    9.6626    8.5091    3.8513 N   0  0  0  0  0  0  0  0  0  0  0  0
   10.2519    8.4605    4.6385 H   0  0  0  0  0  0  0  0  0  0  0  0
    8.3657    9.0247    4.0710 C   0  0  0  0  0  0  0  0  0  0  0  0
    8.1296    9.6535    5.2945 C   0  0  0  0  0  0  0  0  0  0  0  0
    6.8693   10.1707    5.5438 C   0  0  0  0  0  0  0  0  0  0  0  0
    5.8482   10.1031    4.6698 N   0  0  0  0  0  0  0  0  0  0  0  0
    6.0966    9.4910    3.4919 C   0  0  0  0  0  0  0  0  0  0  0  0
    4.6679    9.3865    2.2467 Br  0  0  0  0  0  0  0  0  0  0  0  0
    7.3248    8.9425    3.1506 C   0  0  0  0  0  0  0  0  0  0  0  0
  8  7  1  0
  8  9  1  0
  8  1  1  0
  1  2  1  0
  2  3  1  0
  3  4  1  0
  4 12  1  0
 12 13  2  0
 12 14  1  0
 14 16  1  0
 16 17  2  0
 17 18  1  0
 18 19  2  0
 19 20  1  0
 20 21  1  0
 20 22  2  0
  4  5  1  0
  5  6  1  0
  6  1  1  0
 22 16  1  0
  9 10  1  0
  9 11  1  0
 14 15  1  0
M  END
> <minimizedAffinity>
-7.85706

> <CNNscore>
0.3202788234

> <CNNaffinity>
5.9151859283

> <CNN_VS>
1.8945088387

> <CNNaffinity_variance>
0.0169821028

$$$$



 22 23  0  0  0  0  0  0  0  0999 V2000
   13.7907    9.3776    1.6518 C   0  0  0  0  0  0  0  0  0  0  0  0
   12.6328   10.1311    0.9663 C   0  0  0  0  0  0  0  0  0  0  0  0
   11.3153    9.9497    1.7202 C   0  0  0  0  0  0  0  0  0  0  0  0
   10.9701    8.4660    1.8813 C   0  0  0  0  0  0  0  0  0  0  0  0
   12.1105    7.7017    2.5610 C   0  0  0  0  0  0  0  0  0  0  0  0
   13.4323    7.8874    1.8130 C   0  0  0  0  0  0  0  0  0  0  0  0
   16.1984    8.5826    1.2945 C   0  0  0  0  0  0  0  0  0  0  0  0
   15.1443    9.6311    0.9321 C   0  0  0  0  0  0  0  0  0  0  0  0
   15.0409    9.6955   -0.5247 N   0  0  0  0  0  0  0  0  0  0  0  0
   14.7525    8.7861   -0.8857 H   0  0  0  0  0  0  0  0  0  0  0  0
   15.9476    9.9460   -0.9192 H   0  0  0  0  0  0  0  0  0  0  0  0
    9.6372    8.2650    2.6049 C   0  0  0  0  0  0  0  0  0  0  0  0
    9.3001    7.1406    2.9648 O   0  0  0  0  0  0  0  0  0  0  0  0
    8.9086    9.4260    2.7917 N   0  0  0  0  0  0  0  0  0  0  0  0
    9.3124   10.2548    2.4462 H   0  0  0  0  0  0  0  0  0  0  0  0
    7.6509    9.5578    3.4218 C   0  0  0  0  0  0  0  0  0  0  0  0
    7.6380   10.0917    4.7113 C   0  0  0  0  0  0  0  0  0  0  0  0
    6.4223   10.2351    5.3592 C   0  0  0  0  0  0  0  0  0  0  0  0
    5.2412    9.8875    4.8160 N   0  0  0  0  0  0  0  0  0  0  0  0
    5.2747    9.3730    3.5678 C   0  0  0  0  0  0  0  0  0  0  0  0
    3.6179    8.8772    2.7857 Br  0  0  0  0  0  0  0  0  0  0  0  0
    6.4414    9.1908    2.8388 C   0  0  0  0  0  0  0  0  0  0  0  0
  8  7  1  0
  8  9  1  0
  8  1  1  0
  1  2  1  0
  2  3  1  0
  3  4  1  0
  4 12  1  0
 12 13  2  0
 12 14  1  0
 14 16  1  0
 16 17  2  0
 17 18  1  0
 18 19  2  0
 19 20  1  0
 20 21  1  0
 20 22  2  0
  4  5  1  0
  5  6  1  0
  6  1  1  0
 22 16  1  0
  9 10  1  0
  9 11  1  0
 14 15  1  0
M  END
> <minimizedAffinity>
-7.46097

> <CNNscore>
0.2807925344

> <CNNaffinity>
6.0774817467

> <CNN_VS>
1.7065114975

> <CNNaffinity_variance>
0.0934732035

$$$$



 22 23  0  0  0  0  0  0  0  0999 V2000
   14.2147    8.2537    4.2786 C   0  0  0  0  0  0  0  0  0  0  0  0
   13.6238    6.9750    3.6506 C   0  0  0  0  0  0  0  0  0  0  0  0
   12.3032    7.2555    2.9334 C   0  0  0  0  0  0  0  0  0  0  0  0
   11.2890    7.9086    3.8774 C   0  0  0  0  0  0  0  0  0  0  0  0
   11.8600    9.1812    4.5107 C   0  0  0  0  0  0  0  0  0  0  0  0
   13.1857    8.9053    5.2230 C   0  0  0  0  0  0  0  0  0  0  0  0
   16.2410    6.6946    4.4188 C   0  0  0  0  0  0  0  0  0  0  0  0
   15.5971    7.9833    4.9346 C   0  0  0  0  0  0  0  0  0  0  0  0
   16.5564    9.0744    4.7723 N   0  0  0  0  0  0  0  0  0  0  0  0
   16.7852    9.1818    3.7841 H   0  0  0  0  0  0  0  0  0  0  0  0
   17.4051    8.8618    5.2966 H   0  0  0  0  0  0  0  0  0  0  0  0
    9.9489    8.1668    3.1859 C   0  0  0  0  0  0  0  0  0  0  0  0
    9.7361    7.6995    2.0707 O   0  0  0  0  0  0  0  0  0  0  0  0
    9.0667    8.9379    3.9212 N   0  0  0  0  0  0  0  0  0  0  0  0
    9.3823    9.2405    4.8033 H   0  0  0  0  0  0  0  0  0  0  0  0
    7.7642    9.3408    3.5503 C   0  0  0  0  0  0  0  0  0  0  0  0
    7.5776    9.7541    2.2303 C   0  0  0  0  0  0  0  0  0  0  0  0
    6.3134   10.1559    1.8320 C   0  0  0  0  0  0  0  0  0  0  0  0
    5.2436   10.1724    2.6481 N   0  0  0  0  0  0  0  0  0  0  0  0
    5.4446    9.7689    3.9212 C   0  0  0  0  0  0  0  0  0  0  0  0
    3.9466    9.7855    5.0866 Br  0  0  0  0  0  0  0  0  0  0  0  0
    6.6723    9.3491    4.4135 C   0  0  0  0  0  0  0  0  0  0  0  0
  8  7  1  0
  8  9  1  0
  8  1  1  0
  1  2  1  0
  2  3  1  0
  3  4  1  0
  4 12  1  0
 12 13  2  0
 12 14  1  0
 14 16  1  0
 16 17  2  0
 17 18  1  0
 18 19  2  0
 19 20  1  0
 20 21  1  0
 20 22  2  0
  4  5  1  0
  5  6  1  0
  6  1  1  0
 22 16  1  0
  9 10  1  0
  9 11  1  0
 14 15  1  0
M  END
> <minimizedAffinity>
-8.02864

> <CNNscore>
0.2749551535

> <CNNaffinity>
5.5074157715

> <CNN_VS>
1.5142923594

> <CNNaffinity_variance>
0.2138470858

$$$$



 22 23  0  0  0  0  0  0  0  0999 V2000
    1.5409    8.1807    1.6359 C   0  0  0  0  0  0  0  0  0  0  0  0
    2.6795    7.2112    2.0127 C   0  0  0  0  0  0  0  0  0  0  0  0
    3.8340    7.9363    2.7042 C   0  0  0  0  0  0  0  0  0  0  0  0
    4.3675    9.0803    1.8364 C   0  0  0  0  0  0  0  0  0  0  0  0
    3.2487   10.0537    1.4524 C   0  0  0  0  0  0  0  0  0  0  0  0
    2.0882    9.3297    0.7667 C   0  0  0  0  0  0  0  0  0  0  0  0
   -0.7828    7.1780    2.0253 C   0  0  0  0  0  0  0  0  0  0  0  0
    0.3334    7.4299    1.0092 C   0  0  0  0  0  0  0  0  0  0  0  0
   -0.2455    8.1001   -0.1540 N   0  0  0  0  0  0  0  0  0  0  0  0
   -0.6498    8.9913    0.1334 H   0  0  0  0  0  0  0  0  0  0  0  0
   -0.9735    7.5111   -0.5583 H   0  0  0  0  0  0  0  0  0  0  0  0
    5.5460    9.7974    2.4980 C   0  0  0  0  0  0  0  0  0  0  0  0
    5.6299   11.0207    2.4370 O   0  0  0  0  0  0  0  0  0  0  0  0
    6.4437    8.9560    3.1304 N   0  0  0  0  0  0  0  0  0  0  0  0
    6.2398    7.9935    3.0935 H   0  0  0  0  0  0  0  0  0  0  0  0
    7.6197    9.3207    3.8233 C   0  0  0  0  0  0  0  0  0  0  0  0
    7.5602    9.3289    5.2178 C   0  0  0  0  0  0  0  0  0  0  0  0
    8.6948    9.6816    5.9294 C   0  0  0  0  0  0  0  0  0  0  0  0
    9.8626   10.0204    5.3528 N   0  0  0  0  0  0  0  0  0  0  0  0
    9.8999   10.0063    4.0028 C   0  0  0  0  0  0  0  0  0  0  0  0
   11.5391   10.4814    3.1722 Br  0  0  0  0  0  0  0  0  0  0  0  0
    8.8171    9.6675    3.2039 C   0  0  0  0  0  0  0  0  0  0  0  0
  8  7  1  0
  8  9  1  0
  8  1  1  0
  1  2  1  0
  2  3  1  0
  3  4  1  0
  4 12  1  0
 12 13  2  0
 12 14  1  0
 14 16  1  0
 16 17  2  0
 17 18  1  0
 18 19  2  0
 19 20  1  0
 20 21  1  0
 20 22  2  0
  4  5  1  0
  5  6  1  0
  6  1  1  0
 22 16  1  0
  9 10  1  0
  9 11  1  0
 14 15  1  0
M  END
> <minimizedAffinity>
12.99607

> <CNNscore>
0.2318499684

> <CNNaffinity>
5.7118325233

> <CNN_VS>
1.3242882490

> <CNNaffinity_variance>
0.1047622040

$$$$



 22 23  0  0  0  0  0  0  0  0999 V2000
   19.2515    9.9899    9.0792 C   0  0  0  0  0  0  0  0  0  0  0  0
   17.8263   10.5771    9.0310 C   0  0  0  0  0  0  0  0  0  0  0  0
   16.9464    9.8436    8.0187 C   0  0  0  0  0  0  0  0  0  0  0  0
   17.5800    9.8557    6.6241 C   0  0  0  0  0  0  0  0  0  0  0  0
   18.9974    9.2754    6.6536 C   0  0  0  0  0  0  0  0  0  0  0  0
   19.8785   10.0026    7.6714 C   0  0  0  0  0  0  0  0  0  0  0  0
   21.2290   11.5433    9.5619 C   0  0  0  0  0  0  0  0  0  0  0  0
   20.1191   10.6811   10.1673 C   0  0  0  0  0  0  0  0  0  0  0  0
   19.3553   11.5044   11.1032 N   0  0  0  0  0  0  0  0  0  0  0  0
   18.9395   12.2905   10.6035 H   0  0  0  0  0  0  0  0  0  0  0  0
   19.9762   11.8552   11.8325 H   0  0  0  0  0  0  0  0  0  0  0  0
   16.6975    9.1544    5.5896 C   0  0  0  0  0  0  0  0  0  0  0  0
   15.5097    8.9589    5.8310 O   0  0  0  0  0  0  0  0  0  0  0  0
   17.3567    8.7930    4.4284 N   0  0  0  0  0  0  0  0  0  0  0  0
   18.3139    9.0185    4.3819 H   0  0  0  0  0  0  0  0  0  0  0  0
   16.8126    8.1369    3.3015 C   0  0  0  0  0  0  0  0  0  0  0  0
   15.9639    7.0555    3.5429 C   0  0  0  0  0  0  0  0  0  0  0  0
   15.4125    6.3889    2.4614 C   0  0  0  0  0  0  0  0  0  0  0  0
   15.6476    6.7234    1.1793 N   0  0  0  0  0  0  0  0  0  0  0  0
   16.4713    7.7724    0.9666 C   0  0  0  0  0  0  0  0  0  0  0  0
   16.8142    8.2585   -0.8358 Br  0  0  0  0  0  0  0  0  0  0  0  0
   17.0709    8.5019    1.9834 C   0  0  0  0  0  0  0  0  0  0  0  0
  8  7  1  0
  8  9  1  0
  8  1  1  0
  1  2  1  0
  2  3  1  0
  3  4  1  0
  4 12  1  0
 12 13  2  0
 12 14  1  0
 14 16  1  0
 16 17  2  0
 17 18  1  0
 18 19  2  0
 19 20  1  0
 20 21  1  0
 20 22  2  0
  4  5  1  0
  5  6  1  0
  6  1  1  0
 22 16  1  0
  9 10  1  0
  9 11  1  0
 14 15  1  0
M  END
> <minimizedAffinity>
-5.12570

> <CNNscore>
0.2049914598

> <CNNaffinity>
4.0324096680

> <CNN_VS>
0.8266095519

> <CNNaffinity_variance>
0.4191462696

$$$$



 22 23  0  0  0  0  0  0  0  0999 V2000
   10.7532    8.7271    2.6033 C   0  0  0  0  0  0  0  0  0  0  0  0
   10.4597   10.0827    1.9291 C   0  0  0  0  0  0  0  0  0  0  0  0
   11.4300   10.3657    0.7822 C   0  0  0  0  0  0  0  0  0  0  0  0
   12.8839   10.3073    1.2608 C   0  0  0  0  0  0  0  0  0  0  0  0
   13.1931    8.9663    1.9338 C   0  0  0  0  0  0  0  0  0  0  0  0
   12.2188    8.6766    3.0774 C   0  0  0  0  0  0  0  0  0  0  0  0
    8.2796    8.6834    3.2635 C   0  0  0  0  0  0  0  0  0  0  0  0
    9.7151    8.4029    3.7132 C   0  0  0  0  0  0  0  0  0  0  0  0
    9.7824    7.0289    4.2079 N   0  0  0  0  0  0  0  0  0  0  0  0
    9.5300    6.3848    3.4583 H   0  0  0  0  0  0  0  0  0  0  0  0
    9.1332    6.9156    4.9865 H   0  0  0  0  0  0  0  0  0  0  0  0
   13.8694   10.6208    0.1333 C   0  0  0  0  0  0  0  0  0  0  0  0
   13.8735   11.7345   -0.3834 O   0  0  0  0  0  0  0  0  0  0  0  0
   14.6989    9.5678   -0.2088 N   0  0  0  0  0  0  0  0  0  0  0  0
   14.5759    8.7330    0.2984 H   0  0  0  0  0  0  0  0  0  0  0  0
   15.7024    9.5540   -1.2032 C   0  0  0  0  0  0  0  0  0  0  0  0
   17.0258    9.6638   -0.7735 C   0  0  0  0  0  0  0  0  0  0  0  0
   18.0355    9.6538   -1.7214 C   0  0  0  0  0  0  0  0  0  0  0  0
   17.8163    9.5439   -3.0445 N   0  0  0  0  0  0  0  0  0  0  0  0
   16.5293    9.4387   -3.4403 C   0  0  0  0  0  0  0  0  0  0  0  0
   16.2013    9.2827   -5.3032 Br  0  0  0  0  0  0  0  0  0  0  0  0
   15.4506    9.4391   -2.5674 C   0  0  0  0  0  0  0  0  0  0  0  0
  8  7  1  0
  8  9  1  0
  8  1  1  0
  1  2  1  0
  2  3  1  0
  3  4  1  0
  4 12  1  0
 12 13  2  0
 12 14  1  0
 14 16  1  0
 16 17  2  0
 17 18  1  0
 18 19  2  0
 19 20  1  0
 20 21  1  0
 20 22  2  0
  4  5  1  0
  5  6  1  0
  6  1  1  0
 22 16  1  0
  9 10  1  0
  9 11  1  0
 14 15  1  0
M  END
> <minimizedAffinity>
-6.84004

> <CNNscore>
0.1581123173

> <CNNaffinity>
5.3059406281

> <CNN_VS>
0.8389345407

> <CNNaffinity_variance>
0.1914391071

$$$$



 22 23  0  0  0  0  0  0  0  0999 V2000
   18.5808   16.7634    5.2176 C   0  0  0  0  0  0  0  0  0  0  0  0
   19.6198   15.6790    4.8674 C   0  0  0  0  0  0  0  0  0  0  0  0
   19.5193   14.4757    5.8049 C   0  0  0  0  0  0  0  0  0  0  0  0
   19.6607   14.9023    7.2693 C   0  0  0  0  0  0  0  0  0  0  0  0
   18.6353   15.9802    7.6347 C   0  0  0  0  0  0  0  0  0  0  0  0
   18.7284   17.1828    6.6933 C   0  0  0  0  0  0  0  0  0  0  0  0
   19.9400   18.7309    4.3021 C   0  0  0  0  0  0  0  0  0  0  0  0
   18.6283   17.9478    4.2129 C   0  0  0  0  0  0  0  0  0  0  0  0
   18.4202   17.5554    2.8201 N   0  0  0  0  0  0  0  0  0  0  0  0
   19.1912   16.9612    2.5154 H   0  0  0  0  0  0  0  0  0  0  0  0
   18.3816   18.3894    2.2341 H   0  0  0  0  0  0  0  0  0  0  0  0
   19.5958   13.7065    8.2214 C   0  0  0  0  0  0  0  0  0  0  0  0
   20.0056   13.8188    9.3733 O   0  0  0  0  0  0  0  0  0  0  0  0
   19.0552   12.5617    7.6637 N   0  0  0  0  0  0  0  0  0  0  0  0
   18.7699   12.6273    6.7237 H   0  0  0  0  0  0  0  0  0  0  0  0
   18.8661   11.3092    8.2894 C   0  0  0  0  0  0  0  0  0  0  0  0
   17.5551   10.9437    8.5986 C   0  0  0  0  0  0  0  0  0  0  0  0
   17.3327    9.7224    9.2127 C   0  0  0  0  0  0  0  0  0  0  0  0
   18.3133    8.8581    9.5327 N   0  0  0  0  0  0  0  0  0  0  0  0
   19.5747    9.2299    9.2254 C   0  0  0  0  0  0  0  0  0  0  0  0
   20.9707    8.0230    9.6695 Br  0  0  0  0  0  0  0  0  0  0  0  0
   19.8976   10.4314    8.6108 C   0  0  0  0  0  0  0  0  0  0  0  0
  8  7  1  0
  8  9  1  0
  8  1  1  0
  1  2  1  0
  2  3  1  0
  3  4  1  0
  4 12  1  0
 12 13  2  0
 12 14  1  0
 14 16  1  0
 16 17  2  0
 17 18  1  0
 18 19  2  0
 19 20  1  0
 20 21  1  0
 20 22  2  0
  4  5  1  0
  5  6  1  0
  6  1  1  0
 22 16  1  0
  9 10  1  0
  9 11  1  0
 14 15  1  0
M  END
> <minimizedAffinity>
-4.08326

> <CNNscore>
0.1558992714

> <CNNaffinity>
3.2860746384

> <CNN_VS>
0.5122966170

> <CNNaffinity_variance>
0.7894403338

$$$$
