


 53 55  0  0  0  0  0  0  0  0999 V2000
   41.5928   -4.1895   10.8106 N   0  0  0  0  0  0  0  0  0  0  0  0
   41.5561   -3.8772   12.1446 C   0  0  0  0  0  0  0  0  0  0  0  0
   42.5472   -3.7622   12.8538 O   0  0  0  0  0  0  0  0  0  0  0  0
   40.7438   -4.3002   10.3247 H   0  0  0  0  0  0  0  0  0  0  0  0
   40.2189   -3.5947   12.7119 C   0  0  0  0  0  0  0  0  0  0  0  0
   39.1357   -4.3374   12.2297 C   0  0  0  0  0  0  0  0  0  0  0  0
   37.8650   -4.1379   12.7750 C   0  0  0  0  0  0  0  0  0  0  0  0
   37.6788   -3.1955   13.7923 C   0  0  0  0  0  0  0  0  0  0  0  0
   38.7600   -2.4422   14.2534 C   0  0  0  0  0  0  0  0  0  0  0  0
   40.0326   -2.6322   13.7080 C   0  0  0  0  0  0  0  0  0  0  0  0
   36.7123   -4.9690   12.3580 C   0  0  0  0  0  0  0  0  0  0  0  0
   35.9682   -5.4333   13.2104 O   0  0  0  0  0  0  0  0  0  0  0  0
   36.5626   -5.1566   11.0020 N   0  0  0  0  0  0  0  0  0  0  0  0
   37.1627   -4.6798   10.3841 H   0  0  0  0  0  0  0  0  0  0  0  0
   35.5436   -6.0388   10.4569 C   0  0  0  0  0  0  0  0  0  0  0  0
   36.1886   -7.3570   10.0213 C   0  0  0  0  0  0  0  0  0  0  0  0
   34.7728   -5.3068    9.3742 C   0  0  0  0  0  0  0  0  0  0  0  0
   33.4074   -4.9953    9.4783 C   0  0  0  0  0  0  0  0  0  0  0  0
   32.7509   -4.3274    8.4404 C   0  0  0  0  0  0  0  0  0  0  0  0
   33.4402   -3.9709    7.2822 C   0  0  0  0  0  0  0  0  0  0  0  0
   34.7898   -4.2851    7.1578 C   0  0  0  0  0  0  0  0  0  0  0  0
   35.4502   -4.9509    8.1924 C   0  0  0  0  0  0  0  0  0  0  0  0
   38.5009   -1.4580   15.2712 N   0  0  0  0  0  0  0  0  0  0  0  0
   39.1691   -1.7156   16.5690 C   0  0  0  0  0  0  0  0  0  0  0  0
   36.8680   -0.9580   15.4343 S   0  0  0  0  0  0  0  0  0  0  0  0
   36.1767   -2.2927   16.3920 C   0  0  0  0  0  0  0  0  0  0  0  0
   36.8195    0.2574   16.2226 O   0  0  0  0  0  0  0  0  0  0  0  0
   36.2612   -1.0053   14.1203 O   0  0  0  0  0  0  0  0  0  0  0  0
   42.8543   -4.3647   10.0817 C   0  0  0  0  0  0  0  0  0  0  0  0
   42.7472   -5.5556    9.1067 C   0  0  0  0  0  0  0  0  0  0  0  0
   41.7452   -6.5955    9.5512 C   0  0  0  0  0  0  0  0  0  0  0  0
   40.6289   -6.9004    8.7591 C   0  0  0  0  0  0  0  0  0  0  0  0
   39.7139   -7.8679    9.1762 C   0  0  0  0  0  0  0  0  0  0  0  0
   39.9161   -8.5282   10.3823 C   0  0  0  0  0  0  0  0  0  0  0  0
   39.0380   -9.4587   10.7818 F   0  0  0  0  0  0  0  0  0  0  0  0
   41.0156   -8.2412   11.1800 C   0  0  0  0  0  0  0  0  0  0  0  0
   41.9317   -7.2751   10.7658 C   0  0  0  0  0  0  0  0  0  0  0  0
   43.2277   -3.0242    9.3914 C   0  0  0  0  0  0  0  0  0  0  0  0
   43.7399   -2.0324   10.3493 N   0  0  0  0  0  0  0  0  0  0  0  0
   43.0564   -1.2784   10.4182 H   0  0  0  0  0  0  0  0  0  0  0  0
   45.0581   -1.4290    9.9978 C   0  0  0  0  0  0  0  0  0  0  0  0
   45.3002    0.0650   10.3473 C   0  0  0  0  0  0  0  0  0  0  0  0
   44.3422    0.6994   11.3543 C   0  0  0  0  0  0  0  0  0  0  0  0
   46.6366    0.2047   10.8748 O   0  0  0  0  0  0  0  0  0  0  0  0
   46.7093   -0.2897   11.7061 H   0  0  0  0  0  0  0  0  0  0  0  0
   47.0516   -2.7498    9.4409 N   0  0  0  0  0  0  0  0  0  0  0  0
   46.2261   -2.3374   10.4644 C   0  0  0  0  0  0  0  0  0  0  0  0
   46.3787   -2.6893   11.6345 O   0  0  0  0  0  0  0  0  0  0  0  0
   46.8111   -2.5177    8.5148 H   0  0  0  0  0  0  0  0  0  0  0  0
   48.2601   -3.5123    9.6780 C   0  0  0  0  0  0  0  0  0  0  0  0
   49.7748   -2.2209    8.1384 C   0  0  0  0  0  0  0  0  0  0  0  0
   49.1595   -3.5889    8.4332 C   0  0  0  0  0  0  0  0  0  0  0  0
   50.2680   -4.6301    8.5992 C   0  0  0  0  0  0  0  0  0  0  0  0
 51 52  1  0
 52 53  1  0
 52 50  1  0
 50 46  1  0
 46 47  1  0
 47 48  2  0
 47 41  1  0
 41 39  1  0
 39 38  1  0
 29 38  1  0
 29 30  1  0
 30 31  1  0
 31 32  2  0
 32 33  1  0
 33 34  2  0
 34 35  1  0
 34 36  1  0
 36 37  2  0
 29  1  1  0
  1  2  1  0
  2  3  2  0
  2  5  1  0
  5  6  2  0
  6  7  1  0
  7 11  1  0
 11 12  2  0
 11 13  1  0
 13 15  1  0
 15 16  1  0
 15 17  1  0
 17 18  2  0
 18 19  1  0
 19 20  2  0
 20 21  1  0
 21 22  2  0
  7  8  2  0
  8  9  1  0
  9 23  1  0
 23 24  1  0
 23 25  1  0
 25 26  1  0
 25 27  2  0
 25 28  2  0
  9 10  2  0
 41 42  1  0
 42 43  1  0
 42 44  1  0
 37 31  1  0
 10  5  1  0
 22 17  1  0
 46 49  1  0
 39 40  1  0
  1  4  1  0
 13 14  1  0
 44 45  1  0
M  END
> <minimizedAffinity>
-12.62866

> <CNNscore>
0.9965603948

> <CNNaffinity>
8.6848669052

> <CNN_VS>
8.6549940109

> <CNNaffinity_variance>
2.2061560154

$$$$



 53 55  0  0  0  0  0  0  0  0999 V2000
   41.5695   -4.3831   10.7090 N   0  0  0  0  0  0  0  0  0  0  0  0
   41.5620   -3.9243   12.0005 C   0  0  0  0  0  0  0  0  0  0  0  0
   42.5693   -3.6857   12.6538 O   0  0  0  0  0  0  0  0  0  0  0  0
   40.7112   -4.5859   10.2716 H   0  0  0  0  0  0  0  0  0  0  0  0
   40.2321   -3.6401   12.5841 C   0  0  0  0  0  0  0  0  0  0  0  0
   39.1427   -4.3835   12.1173 C   0  0  0  0  0  0  0  0  0  0  0  0
   37.8791   -4.1823   12.6783 C   0  0  0  0  0  0  0  0  0  0  0  0
   37.7062   -3.2377   13.6958 C   0  0  0  0  0  0  0  0  0  0  0  0
   38.7934   -2.4838   14.1415 C   0  0  0  0  0  0  0  0  0  0  0  0
   40.0589   -2.6754   13.5804 C   0  0  0  0  0  0  0  0  0  0  0  0
   36.7210   -5.0140   12.2778 C   0  0  0  0  0  0  0  0  0  0  0  0
   36.0223   -5.5251   13.1418 O   0  0  0  0  0  0  0  0  0  0  0  0
   36.5136   -5.1477   10.9230 N   0  0  0  0  0  0  0  0  0  0  0  0
   37.0786   -4.6361   10.2999 H   0  0  0  0  0  0  0  0  0  0  0  0
   35.4840   -6.0229   10.3866 C   0  0  0  0  0  0  0  0  0  0  0  0
   36.1074   -7.3649    9.9945 C   0  0  0  0  0  0  0  0  0  0  0  0
   34.7434   -5.3040    9.2745 C   0  0  0  0  0  0  0  0  0  0  0  0
   35.3557   -4.9023    8.0762 C   0  0  0  0  0  0  0  0  0  0  0  0
   34.6204   -4.2337    7.0930 C   0  0  0  0  0  0  0  0  0  0  0  0
   33.2710   -3.9463    7.2931 C   0  0  0  0  0  0  0  0  0  0  0  0
   32.6533   -4.3248    8.4808 C   0  0  0  0  0  0  0  0  0  0  0  0
   33.3833   -4.9942    9.4653 C   0  0  0  0  0  0  0  0  0  0  0  0
   38.5476   -1.4973   15.1604 N   0  0  0  0  0  0  0  0  0  0  0  0
   39.3015   -1.7036   16.4198 C   0  0  0  0  0  0  0  0  0  0  0  0
   36.9050   -1.0714   15.4128 S   0  0  0  0  0  0  0  0  0  0  0  0
   36.3103   -2.4683   16.3464 C   0  0  0  0  0  0  0  0  0  0  0  0
   36.8437    0.1107   16.2495 O   0  0  0  0  0  0  0  0  0  0  0  0
   36.2427   -1.0945   14.1253 O   0  0  0  0  0  0  0  0  0  0  0  0
   42.8131   -4.5824    9.9559 C   0  0  0  0  0  0  0  0  0  0  0  0
   42.7229   -5.8668    9.1059 C   0  0  0  0  0  0  0  0  0  0  0  0
   41.6838   -6.8396    9.6125 C   0  0  0  0  0  0  0  0  0  0  0  0
   41.8428   -7.4786   10.8505 C   0  0  0  0  0  0  0  0  0  0  0  0
   40.8730   -8.3696   11.3118 C   0  0  0  0  0  0  0  0  0  0  0  0
   39.7473   -8.6198   10.5360 C   0  0  0  0  0  0  0  0  0  0  0  0
   38.8151   -9.4743   10.9799 F   0  0  0  0  0  0  0  0  0  0  0  0
   39.5712   -7.9963    9.3079 C   0  0  0  0  0  0  0  0  0  0  0  0
   40.5385   -7.1054    8.8446 C   0  0  0  0  0  0  0  0  0  0  0  0
   43.1097   -3.3036    9.1256 C   0  0  0  0  0  0  0  0  0  0  0  0
   44.5287   -2.9210    9.1865 N   0  0  0  0  0  0  0  0  0  0  0  0
   45.0883   -3.7643    9.0598 H   0  0  0  0  0  0  0  0  0  0  0  0
   44.9586   -2.2691   10.4576 C   0  0  0  0  0  0  0  0  0  0  0  0
   46.3593   -2.6221   11.0286 C   0  0  0  0  0  0  0  0  0  0  0  0
   47.5689   -2.1470   10.2250 C   0  0  0  0  0  0  0  0  0  0  0  0
   46.4725   -2.0601   12.3533 O   0  0  0  0  0  0  0  0  0  0  0  0
   46.4314   -1.0925   12.2986 H   0  0  0  0  0  0  0  0  0  0  0  0
   44.4349   -0.1781   11.6331 N   0  0  0  0  0  0  0  0  0  0  0  0
   44.7152   -0.7376   10.4054 C   0  0  0  0  0  0  0  0  0  0  0  0
   44.7322   -0.0889    9.3590 O   0  0  0  0  0  0  0  0  0  0  0  0
   44.3332   -0.7709   12.4125 H   0  0  0  0  0  0  0  0  0  0  0  0
   44.2843    1.2506   11.8186 C   0  0  0  0  0  0  0  0  0  0  0  0
   46.7993    1.3238   11.8586 C   0  0  0  0  0  0  0  0  0  0  0  0
   45.5196    1.8909   12.4732 C   0  0  0  0  0  0  0  0  0  0  0  0
   45.5089    3.4142   12.3327 C   0  0  0  0  0  0  0  0  0  0  0  0
 51 52  1  0
 52 53  1  0
 52 50  1  0
 50 46  1  0
 46 47  1  0
 47 48  2  0
 47 41  1  0
 41 39  1  0
 39 38  1  0
 29 38  1  0
 29 30  1  0
 30 31  1  0
 31 32  2  0
 32 33  1  0
 33 34  2  0
 34 35  1  0
 34 36  1  0
 36 37  2  0
 29  1  1  0
  1  2  1  0
  2  3  2  0
  2  5  1  0
  5  6  2  0
  6  7  1  0
  7 11  1  0
 11 12  2  0
 11 13  1  0
 13 15  1  0
 15 16  1  0
 15 17  1  0
 17 18  2  0
 18 19  1  0
 19 20  2  0
 20 21  1  0
 21 22  2  0
  7  8  2  0
  8  9  1  0
  9 23  1  0
 23 24  1  0
 23 25  1  0
 25 26  1  0
 25 27  2  0
 25 28  2  0
  9 10  2  0
 41 42  1  0
 42 43  1  0
 42 44  1  0
 37 31  1  0
 10  5  1  0
 22 17  1  0
 46 49  1  0
 39 40  1  0
  1  4  1  0
 13 14  1  0
 44 45  1  0
M  END
> <minimizedAffinity>
-12.82957

> <CNNscore>
0.9918121099

> <CNNaffinity>
8.8031435013

> <CNN_VS>
8.7310647964

> <CNNaffinity_variance>
1.4023990631

$$$$



 53 55  0  0  0  0  0  0  0  0999 V2000
   41.7535   -3.7225   11.4196 N   0  0  0  0  0  0  0  0  0  0  0  0
   41.4081   -2.7922   12.3650 C   0  0  0  0  0  0  0  0  0  0  0  0
   42.1032   -1.8339   12.6762 O   0  0  0  0  0  0  0  0  0  0  0  0
   41.1507   -4.4843   11.2597 H   0  0  0  0  0  0  0  0  0  0  0  0
   40.0684   -2.9476   12.9741 C   0  0  0  0  0  0  0  0  0  0  0  0
   39.1670   -3.8192   12.3536 C   0  0  0  0  0  0  0  0  0  0  0  0
   37.9103   -4.0337   12.9250 C   0  0  0  0  0  0  0  0  0  0  0  0
   37.5559   -3.3743   14.1070 C   0  0  0  0  0  0  0  0  0  0  0  0
   38.4520   -2.4890   14.7089 C   0  0  0  0  0  0  0  0  0  0  0  0
   39.7083   -2.2650   14.1392 C   0  0  0  0  0  0  0  0  0  0  0  0
   36.9647   -5.0185   12.3509 C   0  0  0  0  0  0  0  0  0  0  0  0
   36.3123   -5.7312   13.1008 O   0  0  0  0  0  0  0  0  0  0  0  0
   36.8898   -5.0530   10.9763 N   0  0  0  0  0  0  0  0  0  0  0  0
   37.3930   -4.3879   10.4531 H   0  0  0  0  0  0  0  0  0  0  0  0
   36.0886   -6.0434   10.2757 C   0  0  0  0  0  0  0  0  0  0  0  0
   37.0111   -7.0467    9.5787 C   0  0  0  0  0  0  0  0  0  0  0  0
   35.0976   -5.3376    9.3691 C   0  0  0  0  0  0  0  0  0  0  0  0
   33.7360   -5.1936    9.6814 C   0  0  0  0  0  0  0  0  0  0  0  0
   32.8707   -4.5408    8.7984 C   0  0  0  0  0  0  0  0  0  0  0  0
   33.3455   -4.0332    7.5899 C   0  0  0  0  0  0  0  0  0  0  0  0
   34.6889   -4.1803    7.2595 C   0  0  0  0  0  0  0  0  0  0  0  0
   35.5573   -4.8303    8.1388 C   0  0  0  0  0  0  0  0  0  0  0  0
   38.0170   -1.8071   15.8994 N   0  0  0  0  0  0  0  0  0  0  0  0
   38.0743   -2.6202   17.1374 C   0  0  0  0  0  0  0  0  0  0  0  0
   36.5751   -0.8889   15.7548 S   0  0  0  0  0  0  0  0  0  0  0  0
   35.3995   -1.9297   16.5983 C   0  0  0  0  0  0  0  0  0  0  0  0
   36.7223    0.3474   16.4971 O   0  0  0  0  0  0  0  0  0  0  0  0
   36.2087   -0.8649   14.3540 O   0  0  0  0  0  0  0  0  0  0  0  0
   42.9911   -3.6219   10.6374 C   0  0  0  0  0  0  0  0  0  0  0  0
   42.8608   -4.4239    9.3258 C   0  0  0  0  0  0  0  0  0  0  0  0
   42.0746   -5.7036    9.4906 C   0  0  0  0  0  0  0  0  0  0  0  0
   41.1468   -6.1055    8.5190 C   0  0  0  0  0  0  0  0  0  0  0  0
   40.4318   -7.2931    8.6782 C   0  0  0  0  0  0  0  0  0  0  0  0
   40.6452   -8.0761    9.8064 C   0  0  0  0  0  0  0  0  0  0  0  0
   39.9595   -9.2176    9.9583 F   0  0  0  0  0  0  0  0  0  0  0  0
   41.5602   -7.6958   10.7791 C   0  0  0  0  0  0  0  0  0  0  0  0
   42.2763   -6.5097   10.6226 C   0  0  0  0  0  0  0  0  0  0  0  0
   43.3298   -2.1216   10.4209 C   0  0  0  0  0  0  0  0  0  0  0  0
   44.6605   -1.9354    9.8226 N   0  0  0  0  0  0  0  0  0  0  0  0
   45.1799   -2.8065    9.9316 H   0  0  0  0  0  0  0  0  0  0  0  0
   45.4764   -0.8352   10.4135 C   0  0  0  0  0  0  0  0  0  0  0  0
   44.8155    0.0793   11.4811 C   0  0  0  0  0  0  0  0  0  0  0  0
   45.5762    1.3472   11.8660 C   0  0  0  0  0  0  0  0  0  0  0  0
   43.5158    0.4839   11.0010 O   0  0  0  0  0  0  0  0  0  0  0  0
   43.6198    1.0224   10.2010 H   0  0  0  0  0  0  0  0  0  0  0  0
   46.9752   -1.5321   12.2292 N   0  0  0  0  0  0  0  0  0  0  0  0
   46.8656   -1.3568   10.8668 C   0  0  0  0  0  0  0  0  0  0  0  0
   47.7963   -1.5579   10.0860 O   0  0  0  0  0  0  0  0  0  0  0  0
   46.2274   -1.2521   12.8051 H   0  0  0  0  0  0  0  0  0  0  0  0
   48.1506   -2.1133   12.8448 C   0  0  0  0  0  0  0  0  0  0  0  0
   48.9578   -2.9326   15.0829 C   0  0  0  0  0  0  0  0  0  0  0  0
   48.2421   -1.7997   14.3473 C   0  0  0  0  0  0  0  0  0  0  0  0
   48.9651   -0.4765   14.6062 C   0  0  0  0  0  0  0  0  0  0  0  0
 51 52  1  0
 52 53  1  0
 52 50  1  0
 50 46  1  0
 46 47  1  0
 47 48  2  0
 47 41  1  0
 41 39  1  0
 39 38  1  0
 29 38  1  0
 29 30  1  0
 30 31  1  0
 31 32  2  0
 32 33  1  0
 33 34  2  0
 34 35  1  0
 34 36  1  0
 36 37  2  0
 29  1  1  0
  1  2  1  0
  2  3  2  0
  2  5  1  0
  5  6  2  0
  6  7  1  0
  7 11  1  0
 11 12  2  0
 11 13  1  0
 13 15  1  0
 15 16  1  0
 15 17  1  0
 17 18  2  0
 18 19  1  0
 19 20  2  0
 20 21  1  0
 21 22  2  0
  7  8  2  0
  8  9  1  0
  9 23  1  0
 23 24  1  0
 23 25  1  0
 25 26  1  0
 25 27  2  0
 25 28  2  0
  9 10  2  0
 41 42  1  0
 42 43  1  0
 42 44  1  0
 37 31  1  0
 10  5  1  0
 22 17  1  0
 46 49  1  0
 39 40  1  0
  1  4  1  0
 13 14  1  0
 44 45  1  0
M  END
> <minimizedAffinity>
-11.13276

> <CNNscore>
0.9456894398

> <CNNaffinity>
8.5270605087

> <CNN_VS>
8.0639514923

> <CNNaffinity_variance>
0.6296529174

$$$$



 53 55  0  0  0  0  0  0  0  0999 V2000
   41.4056   -3.4485   11.2422 N   0  0  0  0  0  0  0  0  0  0  0  0
   41.2621   -3.4664   12.6052 C   0  0  0  0  0  0  0  0  0  0  0  0
   42.1955   -3.4875   13.3970 O   0  0  0  0  0  0  0  0  0  0  0  0
   40.5985   -3.4713   10.6789 H   0  0  0  0  0  0  0  0  0  0  0  0
   39.8762   -3.3784   13.1164 C   0  0  0  0  0  0  0  0  0  0  0  0
   39.6005   -2.4129   14.0907 C   0  0  0  0  0  0  0  0  0  0  0  0
   38.2941   -2.2624   14.5625 C   0  0  0  0  0  0  0  0  0  0  0  0
   37.2714   -3.0782   14.0666 C   0  0  0  0  0  0  0  0  0  0  0  0
   37.5577   -4.0544   13.1106 C   0  0  0  0  0  0  0  0  0  0  0  0
   38.8634   -4.2146   12.6388 C   0  0  0  0  0  0  0  0  0  0  0  0
   37.9445   -1.1909   15.5232 C   0  0  0  0  0  0  0  0  0  0  0  0
   37.3425   -0.2029   15.1267 O   0  0  0  0  0  0  0  0  0  0  0  0
   38.3335   -1.3993   16.8277 N   0  0  0  0  0  0  0  0  0  0  0  0
   38.7438   -2.2600   17.0728 H   0  0  0  0  0  0  0  0  0  0  0  0
   38.1554   -0.3844   17.8533 C   0  0  0  0  0  0  0  0  0  0  0  0
   39.4027   -0.3285   18.7391 C   0  0  0  0  0  0  0  0  0  0  0  0
   36.8514   -0.6356   18.5873 C   0  0  0  0  0  0  0  0  0  0  0  0
   35.8210   -1.4392   18.0727 C   0  0  0  0  0  0  0  0  0  0  0  0
   34.6377   -1.6238   18.7940 C   0  0  0  0  0  0  0  0  0  0  0  0
   34.4595   -1.0034   20.0297 C   0  0  0  0  0  0  0  0  0  0  0  0
   35.4651   -0.1928   20.5466 C   0  0  0  0  0  0  0  0  0  0  0  0
   36.6494   -0.0066   19.8306 C   0  0  0  0  0  0  0  0  0  0  0  0
   36.4742   -4.8924   12.6685 N   0  0  0  0  0  0  0  0  0  0  0  0
   35.4832   -5.2317   13.7173 C   0  0  0  0  0  0  0  0  0  0  0  0
   36.9114   -6.2302   11.6875 S   0  0  0  0  0  0  0  0  0  0  0  0
   36.2239   -5.7608   10.1115 C   0  0  0  0  0  0  0  0  0  0  0  0
   38.3553   -6.2826   11.5710 O   0  0  0  0  0  0  0  0  0  0  0  0
   36.1707   -7.3814   12.1599 O   0  0  0  0  0  0  0  0  0  0  0  0
   42.7210   -3.3964   10.5938 C   0  0  0  0  0  0  0  0  0  0  0  0
   42.6939   -4.1827    9.2666 C   0  0  0  0  0  0  0  0  0  0  0  0
   42.0106   -5.5248    9.3881 C   0  0  0  0  0  0  0  0  0  0  0  0
   41.1287   -5.9730    8.3943 C   0  0  0  0  0  0  0  0  0  0  0  0
   40.5089   -7.2176    8.5135 C   0  0  0  0  0  0  0  0  0  0  0  0
   40.7715   -8.0109    9.6240 C   0  0  0  0  0  0  0  0  0  0  0  0
   40.1775   -9.2070    9.7374 F   0  0  0  0  0  0  0  0  0  0  0  0
   41.6424   -7.5852   10.6181 C   0  0  0  0  0  0  0  0  0  0  0  0
   42.2633   -6.3421   10.5016 C   0  0  0  0  0  0  0  0  0  0  0  0
   43.1440   -1.9107   10.4309 C   0  0  0  0  0  0  0  0  0  0  0  0
   44.3667   -1.7686    9.6257 N   0  0  0  0  0  0  0  0  0  0  0  0
   44.8435   -2.6702    9.6146 H   0  0  0  0  0  0  0  0  0  0  0  0
   45.3335   -0.7417   10.1115 C   0  0  0  0  0  0  0  0  0  0  0  0
   44.8802    0.2174   11.2461 C   0  0  0  0  0  0  0  0  0  0  0  0
   45.8477    1.3367   11.6277 C   0  0  0  0  0  0  0  0  0  0  0  0
   43.6353    0.8360   10.8574 O   0  0  0  0  0  0  0  0  0  0  0  0
   43.7790    1.3854   10.0710 H   0  0  0  0  0  0  0  0  0  0  0  0
   46.9121   -2.5928    9.7798 N   0  0  0  0  0  0  0  0  0  0  0  0
   46.7195   -1.3770   10.3993 C   0  0  0  0  0  0  0  0  0  0  0  0
   47.5544   -0.8618   11.1434 O   0  0  0  0  0  0  0  0  0  0  0  0
   46.1633   -2.9966    9.2843 H   0  0  0  0  0  0  0  0  0  0  0  0
   48.1762   -3.2983    9.8313 C   0  0  0  0  0  0  0  0  0  0  0  0
   49.7526   -2.2016    8.2051 C   0  0  0  0  0  0  0  0  0  0  0  0
   48.8445   -3.4066    8.4507 C   0  0  0  0  0  0  0  0  0  0  0  0
   49.6511   -4.6991    8.3123 C   0  0  0  0  0  0  0  0  0  0  0  0
 51 52  1  0
 52 53  1  0
 52 50  1  0
 50 46  1  0
 46 47  1  0
 47 48  2  0
 47 41  1  0
 41 39  1  0
 39 38  1  0
 29 38  1  0
 29 30  1  0
 30 31  1  0
 31 32  2  0
 32 33  1  0
 33 34  2  0
 34 35  1  0
 34 36  1  0
 36 37  2  0
 29  1  1  0
  1  2  1  0
  2  3  2  0
  2  5  1  0
  5  6  2  0
  6  7  1  0
  7 11  1  0
 11 12  2  0
 11 13  1  0
 13 15  1  0
 15 16  1  0
 15 17  1  0
 17 18  2  0
 18 19  1  0
 19 20  2  0
 20 21  1  0
 21 22  2  0
  7  8  2  0
  8  9  1  0
  9 23  1  0
 23 24  1  0
 23 25  1  0
 25 26  1  0
 25 27  2  0
 25 28  2  0
  9 10  2  0
 41 42  1  0
 42 43  1  0
 42 44  1  0
 37 31  1  0
 10  5  1  0
 22 17  1  0
 46 49  1  0
 39 40  1  0
  1  4  1  0
 13 14  1  0
 44 45  1  0
M  END
> <minimizedAffinity>
-9.29408

> <CNNscore>
0.7334625721

> <CNNaffinity>
8.0668754578

> <CNN_VS>
5.9167513847

> <CNNaffinity_variance>
0.6072412729

$$$$



 53 55  0  0  0  0  0  0  0  0999 V2000
   42.4020   -3.8220   11.1054 N   0  0  0  0  0  0  0  0  0  0  0  0
   42.1673   -2.9740   12.1563 C   0  0  0  0  0  0  0  0  0  0  0  0
   42.9735   -2.1529   12.5737 O   0  0  0  0  0  0  0  0  0  0  0  0
   41.7106   -4.4788   10.8610 H   0  0  0  0  0  0  0  0  0  0  0  0
   40.8139   -3.0324   12.7519 C   0  0  0  0  0  0  0  0  0  0  0  0
   39.9356   -4.0141   12.2803 C   0  0  0  0  0  0  0  0  0  0  0  0
   38.6666   -4.1365   12.8516 C   0  0  0  0  0  0  0  0  0  0  0  0
   38.2769   -3.2766   13.8843 C   0  0  0  0  0  0  0  0  0  0  0  0
   39.1502   -2.2851   14.3350 C   0  0  0  0  0  0  0  0  0  0  0  0
   40.4187   -2.1530   13.7637 C   0  0  0  0  0  0  0  0  0  0  0  0
   37.7440   -5.2214   12.4453 C   0  0  0  0  0  0  0  0  0  0  0  0
   38.2042   -6.2837   12.0510 O   0  0  0  0  0  0  0  0  0  0  0  0
   36.3997   -4.9414   12.5498 N   0  0  0  0  0  0  0  0  0  0  0  0
   36.1188   -4.0881   12.9525 H   0  0  0  0  0  0  0  0  0  0  0  0
   35.3835   -5.8702   12.0826 C   0  0  0  0  0  0  0  0  0  0  0  0
   35.2589   -7.0317   13.0719 C   0  0  0  0  0  0  0  0  0  0  0  0
   35.6887   -6.2697   10.6509 C   0  0  0  0  0  0  0  0  0  0  0  0
   36.0339   -7.5777   10.2738 C   0  0  0  0  0  0  0  0  0  0  0  0
   36.3139   -7.8805    8.9380 C   0  0  0  0  0  0  0  0  0  0  0  0
   36.2653   -6.8853    7.9629 C   0  0  0  0  0  0  0  0  0  0  0  0
   35.9389   -5.5816    8.3227 C   0  0  0  0  0  0  0  0  0  0  0  0
   35.6570   -5.2746    9.6554 C   0  0  0  0  0  0  0  0  0  0  0  0
   38.6796   -1.4026   15.3701 N   0  0  0  0  0  0  0  0  0  0  0  0
   39.4391   -1.4747   16.6409 C   0  0  0  0  0  0  0  0  0  0  0  0
   36.9798   -1.3486   15.5957 S   0  0  0  0  0  0  0  0  0  0  0  0
   36.8215   -0.0787   16.8363 C   0  0  0  0  0  0  0  0  0  0  0  0
   36.3523   -0.8885   14.3727 O   0  0  0  0  0  0  0  0  0  0  0  0
   36.5774   -2.6010   16.2011 O   0  0  0  0  0  0  0  0  0  0  0  0
   43.6487   -3.7846   10.3322 C   0  0  0  0  0  0  0  0  0  0  0  0
   43.5301   -4.6827    9.0834 C   0  0  0  0  0  0  0  0  0  0  0  0
   42.4414   -5.7234    9.2046 C   0  0  0  0  0  0  0  0  0  0  0  0
   41.4316   -5.8209    8.2365 C   0  0  0  0  0  0  0  0  0  0  0  0
   40.4353   -6.7907    8.3548 C   0  0  0  0  0  0  0  0  0  0  0  0
   40.4502   -7.6603    9.4388 C   0  0  0  0  0  0  0  0  0  0  0  0
   39.4941   -8.5929    9.5514 F   0  0  0  0  0  0  0  0  0  0  0  0
   41.4420   -7.5804   10.4072 C   0  0  0  0  0  0  0  0  0  0  0  0
   42.4389   -6.6125   10.2915 C   0  0  0  0  0  0  0  0  0  0  0  0
   43.9957   -2.3058   10.0073 C   0  0  0  0  0  0  0  0  0  0  0  0
   45.3573   -2.1622    9.4696 N   0  0  0  0  0  0  0  0  0  0  0  0
   45.4429   -2.7765    8.6599 H   0  0  0  0  0  0  0  0  0  0  0  0
   46.4564   -2.4977   10.4209 C   0  0  0  0  0  0  0  0  0  0  0  0
   47.8525   -2.8497    9.8379 C   0  0  0  0  0  0  0  0  0  0  0  0
   48.7445   -3.7530   10.6880 C   0  0  0  0  0  0  0  0  0  0  0  0
   47.6691   -3.5000    8.5623 O   0  0  0  0  0  0  0  0  0  0  0  0
   47.2030   -4.3407    8.6920 H   0  0  0  0  0  0  0  0  0  0  0  0
   46.6917   -0.1531   11.1110 N   0  0  0  0  0  0  0  0  0  0  0  0
   46.5441   -1.4476   11.5598 C   0  0  0  0  0  0  0  0  0  0  0  0
   46.5232   -1.7469   12.7540 O   0  0  0  0  0  0  0  0  0  0  0  0
   46.8070    0.0041   10.1460 H   0  0  0  0  0  0  0  0  0  0  0  0
   46.6836    0.9846   12.0074 C   0  0  0  0  0  0  0  0  0  0  0  0
   44.2563    0.9536   11.3448 C   0  0  0  0  0  0  0  0  0  0  0  0
   45.3952    1.8155   11.8896 C   0  0  0  0  0  0  0  0  0  0  0  0
   44.9879    2.4218   13.2339 C   0  0  0  0  0  0  0  0  0  0  0  0
 51 52  1  0
 52 53  1  0
 52 50  1  0
 50 46  1  0
 46 47  1  0
 47 48  2  0
 47 41  1  0
 41 39  1  0
 39 38  1  0
 29 38  1  0
 29 30  1  0
 30 31  1  0
 31 32  2  0
 32 33  1  0
 33 34  2  0
 34 35  1  0
 34 36  1  0
 36 37  2  0
 29  1  1  0
  1  2  1  0
  2  3  2  0
  2  5  1  0
  5  6  2  0
  6  7  1  0
  7 11  1  0
 11 12  2  0
 11 13  1  0
 13 15  1  0
 15 16  1  0
 15 17  1  0
 17 18  2  0
 18 19  1  0
 19 20  2  0
 20 21  1  0
 21 22  2  0
  7  8  2  0
  8  9  1  0
  9 23  1  0
 23 24  1  0
 23 25  1  0
 25 26  1  0
 25 27  2  0
 25 28  2  0
  9 10  2  0
 41 42  1  0
 42 43  1  0
 42 44  1  0
 37 31  1  0
 10  5  1  0
 22 17  1  0
 46 49  1  0
 39 40  1  0
  1  4  1  0
 13 14  1  0
 44 45  1  0
M  END
> <minimizedAffinity>
-8.64090

> <CNNscore>
0.6969678998

> <CNNaffinity>
7.7652297020

> <CNN_VS>
5.4121160507

> <CNNaffinity_variance>
1.2188476324

$$$$



 53 55  0  0  0  0  0  0  0  0999 V2000
   41.6689   -3.6899   12.3542 N   0  0  0  0  0  0  0  0  0  0  0  0
   41.1150   -2.5432   12.8609 C   0  0  0  0  0  0  0  0  0  0  0  0
   41.5801   -1.4225   12.6990 O   0  0  0  0  0  0  0  0  0  0  0  0
   41.2488   -4.5547   12.5663 H   0  0  0  0  0  0  0  0  0  0  0  0
   39.8323   -2.7015   13.5816 C   0  0  0  0  0  0  0  0  0  0  0  0
   39.6940   -2.0577   14.8160 C   0  0  0  0  0  0  0  0  0  0  0  0
   38.4811   -2.1393   15.5046 C   0  0  0  0  0  0  0  0  0  0  0  0
   37.4154   -2.8668   14.9635 C   0  0  0  0  0  0  0  0  0  0  0  0
   37.5676   -3.5249   13.7418 C   0  0  0  0  0  0  0  0  0  0  0  0
   38.7801   -3.4527   13.0507 C   0  0  0  0  0  0  0  0  0  0  0  0
   38.2643   -1.3958   16.7669 C   0  0  0  0  0  0  0  0  0  0  0  0
   38.1716   -0.1766   16.7364 O   0  0  0  0  0  0  0  0  0  0  0  0
   38.1783   -2.1590   17.9099 N   0  0  0  0  0  0  0  0  0  0  0  0
   38.1847   -3.1403   17.8313 H   0  0  0  0  0  0  0  0  0  0  0  0
   38.0782   -1.5568   19.2294 C   0  0  0  0  0  0  0  0  0  0  0  0
   36.9918   -0.4784   19.2180 C   0  0  0  0  0  0  0  0  0  0  0  0
   39.4513   -1.0871   19.6723 C   0  0  0  0  0  0  0  0  0  0  0  0
   40.6383   -1.7634   19.3466 C   0  0  0  0  0  0  0  0  0  0  0  0
   41.8733   -1.2849   19.7941 C   0  0  0  0  0  0  0  0  0  0  0  0
   41.9428   -0.1354   20.5798 C   0  0  0  0  0  0  0  0  0  0  0  0
   40.7749    0.5379   20.9231 C   0  0  0  0  0  0  0  0  0  0  0  0
   39.5390    0.0647   20.4773 C   0  0  0  0  0  0  0  0  0  0  0  0
   36.4518   -4.2928   13.2548 N   0  0  0  0  0  0  0  0  0  0  0  0
   35.6051   -4.8970   14.3108 C   0  0  0  0  0  0  0  0  0  0  0  0
   36.7858   -5.3624   11.9558 S   0  0  0  0  0  0  0  0  0  0  0  0
   35.5634   -6.6337   12.2129 C   0  0  0  0  0  0  0  0  0  0  0  0
   36.5053   -4.6904   10.7025 O   0  0  0  0  0  0  0  0  0  0  0  0
   38.0857   -5.9533   12.1970 O   0  0  0  0  0  0  0  0  0  0  0  0
   42.8665   -3.6730   11.5063 C   0  0  0  0  0  0  0  0  0  0  0  0
   42.4971   -4.0345   10.0526 C   0  0  0  0  0  0  0  0  0  0  0  0
   41.8845   -5.4095    9.9224 C   0  0  0  0  0  0  0  0  0  0  0  0
   41.3268   -5.8341    8.7079 C   0  0  0  0  0  0  0  0  0  0  0  0
   40.7704   -7.1090    8.5972 C   0  0  0  0  0  0  0  0  0  0  0  0
   40.7726   -7.9562    9.6990 C   0  0  0  0  0  0  0  0  0  0  0  0
   40.2397   -9.1813    9.5920 F   0  0  0  0  0  0  0  0  0  0  0  0
   41.3209   -7.5546   10.9098 C   0  0  0  0  0  0  0  0  0  0  0  0
   41.8778   -6.2813   11.0233 C   0  0  0  0  0  0  0  0  0  0  0  0
   43.5649   -2.2929   11.6484 C   0  0  0  0  0  0  0  0  0  0  0  0
   43.9817   -1.7470   10.3477 N   0  0  0  0  0  0  0  0  0  0  0  0
   43.9955   -2.5130    9.6742 H   0  0  0  0  0  0  0  0  0  0  0  0
   45.3231   -1.0945   10.3311 C   0  0  0  0  0  0  0  0  0  0  0  0
   45.4855    0.2722   11.0512 C   0  0  0  0  0  0  0  0  0  0  0  0
   44.2007    1.0176   11.4091 C   0  0  0  0  0  0  0  0  0  0  0  0
   46.2199    0.0637   12.2763 O   0  0  0  0  0  0  0  0  0  0  0  0
   45.7033   -0.5029   12.8705 H   0  0  0  0  0  0  0  0  0  0  0  0
   47.1851   -2.5473    9.6599 N   0  0  0  0  0  0  0  0  0  0  0  0
   46.4349   -2.1018   10.7265 C   0  0  0  0  0  0  0  0  0  0  0  0
   46.6058   -2.4966   11.8803 O   0  0  0  0  0  0  0  0  0  0  0  0
   46.9271   -2.2720    8.7505 H   0  0  0  0  0  0  0  0  0  0  0  0
   48.3396   -3.4058    9.8280 C   0  0  0  0  0  0  0  0  0  0  0  0
   50.7980   -3.7420    9.4093 C   0  0  0  0  0  0  0  0  0  0  0  0
   49.6352   -2.7540    9.3170 C   0  0  0  0  0  0  0  0  0  0  0  0
   49.4898   -2.2591    7.8768 C   0  0  0  0  0  0  0  0  0  0  0  0
 51 52  1  0
 52 53  1  0
 52 50  1  0
 50 46  1  0
 46 47  1  0
 47 48  2  0
 47 41  1  0
 41 39  1  0
 39 38  1  0
 29 38  1  0
 29 30  1  0
 30 31  1  0
 31 32  2  0
 32 33  1  0
 33 34  2  0
 34 35  1  0
 34 36  1  0
 36 37  2  0
 29  1  1  0
  1  2  1  0
  2  3  2  0
  2  5  1  0
  5  6  2  0
  6  7  1  0
  7 11  1  0
 11 12  2  0
 11 13  1  0
 13 15  1  0
 15 16  1  0
 15 17  1  0
 17 18  2  0
 18 19  1  0
 19 20  2  0
 20 21  1  0
 21 22  2  0
  7  8  2  0
  8  9  1  0
  9 23  1  0
 23 24  1  0
 23 25  1  0
 25 26  1  0
 25 27  2  0
 25 28  2  0
  9 10  2  0
 41 42  1  0
 42 43  1  0
 42 44  1  0
 37 31  1  0
 10  5  1  0
 22 17  1  0
 46 49  1  0
 39 40  1  0
  1  4  1  0
 13 14  1  0
 44 45  1  0
M  END
> <minimizedAffinity>
-9.44447

> <CNNscore>
0.4658788741

> <CNNaffinity>
7.3696060181

> <CNN_VS>
3.4333436489

> <CNNaffinity_variance>
1.0243573189

$$$$



 53 55  0  0  0  0  0  0  0  0999 V2000
   41.8412   -4.2859   11.2166 N   0  0  0  0  0  0  0  0  0  0  0  0
   41.5316   -3.1731   11.9544 C   0  0  0  0  0  0  0  0  0  0  0  0
   42.2168   -2.1595   11.9950 O   0  0  0  0  0  0  0  0  0  0  0  0
   41.2522   -5.0727   11.2730 H   0  0  0  0  0  0  0  0  0  0  0  0
   40.2405   -3.2078   12.6767 C   0  0  0  0  0  0  0  0  0  0  0  0
   39.3045   -4.1743   12.2933 C   0  0  0  0  0  0  0  0  0  0  0  0
   38.0939   -4.2745   12.9835 C   0  0  0  0  0  0  0  0  0  0  0  0
   37.8195   -3.4076   14.0469 C   0  0  0  0  0  0  0  0  0  0  0  0
   38.7488   -2.4311   14.4100 C   0  0  0  0  0  0  0  0  0  0  0  0
   39.9590   -2.3212   13.7198 C   0  0  0  0  0  0  0  0  0  0  0  0
   37.1182   -5.3434   12.6695 C   0  0  0  0  0  0  0  0  0  0  0  0
   37.2976   -6.0495   11.6871 O   0  0  0  0  0  0  0  0  0  0  0  0
   36.0553   -5.4643   13.5366 N   0  0  0  0  0  0  0  0  0  0  0  0
   36.0327   -4.9048   14.3464 H   0  0  0  0  0  0  0  0  0  0  0  0
   34.9654   -6.3945   13.2903 C   0  0  0  0  0  0  0  0  0  0  0  0
   34.3752   -6.1341   11.9021 C   0  0  0  0  0  0  0  0  0  0  0  0
   33.9755   -6.3232   14.4380 C   0  0  0  0  0  0  0  0  0  0  0  0
   33.7118   -5.1448   15.1550 C   0  0  0  0  0  0  0  0  0  0  0  0
   32.7948   -5.1465   16.2102 C   0  0  0  0  0  0  0  0  0  0  0  0
   32.1372   -6.3211   16.5728 C   0  0  0  0  0  0  0  0  0  0  0  0
   32.3981   -7.4999   15.8816 C   0  0  0  0  0  0  0  0  0  0  0  0
   33.3122   -7.5029   14.8259 C   0  0  0  0  0  0  0  0  0  0  0  0
   38.3945   -1.5401   15.4834 N   0  0  0  0  0  0  0  0  0  0  0  0
   38.8237   -1.9878   16.8298 C   0  0  0  0  0  0  0  0  0  0  0  0
   36.7943   -0.9225   15.4499 S   0  0  0  0  0  0  0  0  0  0  0  0
   35.9147   -2.1504   16.3962 C   0  0  0  0  0  0  0  0  0  0  0  0
   36.7557    0.3367   16.1669 O   0  0  0  0  0  0  0  0  0  0  0  0
   36.3209   -1.0043   14.0839 O   0  0  0  0  0  0  0  0  0  0  0  0
   43.0206   -4.3447   10.3454 C   0  0  0  0  0  0  0  0  0  0  0  0
   42.8322   -5.4285    9.2636 C   0  0  0  0  0  0  0  0  0  0  0  0
   41.8247   -6.4847    9.6536 C   0  0  0  0  0  0  0  0  0  0  0  0
   41.9967   -7.2438   10.8200 C   0  0  0  0  0  0  0  0  0  0  0  0
   41.0559   -8.2116   11.1743 C   0  0  0  0  0  0  0  0  0  0  0  0
   39.9463   -8.4184   10.3635 C   0  0  0  0  0  0  0  0  0  0  0  0
   39.0419   -9.3468   10.7049 F   0  0  0  0  0  0  0  0  0  0  0  0
   39.7577   -7.6763    9.2052 C   0  0  0  0  0  0  0  0  0  0  0  0
   40.6960   -6.7085    8.8488 C   0  0  0  0  0  0  0  0  0  0  0  0
   43.2928   -2.9281    9.7694 C   0  0  0  0  0  0  0  0  0  0  0  0
   44.6928   -2.7606    9.3505 N   0  0  0  0  0  0  0  0  0  0  0  0
   45.0552   -3.6773    9.0883 H   0  0  0  0  0  0  0  0  0  0  0  0
   45.6019   -2.1835   10.3828 C   0  0  0  0  0  0  0  0  0  0  0  0
   47.0561   -2.7229   10.4673 C   0  0  0  0  0  0  0  0  0  0  0  0
   47.5957   -3.4409    9.2313 C   0  0  0  0  0  0  0  0  0  0  0  0
   47.9423   -1.6185   10.7470 O   0  0  0  0  0  0  0  0  0  0  0  0
   47.9218   -0.9919   10.0069 H   0  0  0  0  0  0  0  0  0  0  0  0
   46.0048   -0.0470   11.5239 N   0  0  0  0  0  0  0  0  0  0  0  0
   45.5517   -0.6328   10.3617 C   0  0  0  0  0  0  0  0  0  0  0  0
   45.1113    0.0132    9.4105 O   0  0  0  0  0  0  0  0  0  0  0  0
   46.2437   -0.6247   12.2844 H   0  0  0  0  0  0  0  0  0  0  0  0
   46.1423    1.3878   11.6670 C   0  0  0  0  0  0  0  0  0  0  0  0
   45.0564    3.5123   12.4668 C   0  0  0  0  0  0  0  0  0  0  0  0
   45.0772    1.9894   12.5988 C   0  0  0  0  0  0  0  0  0  0  0  0
   43.6856    1.4256   12.3059 C   0  0  0  0  0  0  0  0  0  0  0  0
 51 52  1  0
 52 53  1  0
 52 50  1  0
 50 46  1  0
 46 47  1  0
 47 48  2  0
 47 41  1  0
 41 39  1  0
 39 38  1  0
 29 38  1  0
 29 30  1  0
 30 31  1  0
 31 32  2  0
 32 33  1  0
 33 34  2  0
 34 35  1  0
 34 36  1  0
 36 37  2  0
 29  1  1  0
  1  2  1  0
  2  3  2  0
  2  5  1  0
  5  6  2  0
  6  7  1  0
  7 11  1  0
 11 12  2  0
 11 13  1  0
 13 15  1  0
 15 16  1  0
 15 17  1  0
 17 18  2  0
 18 19  1  0
 19 20  2  0
 20 21  1  0
 21 22  2  0
  7  8  2  0
  8  9  1  0
  9 23  1  0
 23 24  1  0
 23 25  1  0
 25 26  1  0
 25 27  2  0
 25 28  2  0
  9 10  2  0
 41 42  1  0
 42 43  1  0
 42 44  1  0
 37 31  1  0
 10  5  1  0
 22 17  1  0
 46 49  1  0
 39 40  1  0
  1  4  1  0
 13 14  1  0
 44 45  1  0
M  END
> <minimizedAffinity>
-9.38218

> <CNNscore>
0.3834764361

> <CNNaffinity>
7.3314156532

> <CNN_VS>
2.8114252090

> <CNNaffinity_variance>
1.1515406370

$$$$



 53 55  0  0  0  0  0  0  0  0999 V2000
   35.6649   -6.2517   11.8695 N   0  0  0  0  0  0  0  0  0  0  0  0
   36.2290   -5.1705   12.4951 C   0  0  0  0  0  0  0  0  0  0  0  0
   37.0535   -4.4275   11.9789 O   0  0  0  0  0  0  0  0  0  0  0  0
   35.0379   -6.8190   12.3739 H   0  0  0  0  0  0  0  0  0  0  0  0
   35.7293   -4.8697   13.8551 C   0  0  0  0  0  0  0  0  0  0  0  0
   34.8528   -5.7866   14.4455 C   0  0  0  0  0  0  0  0  0  0  0  0
   34.3983   -5.5661   15.7480 C   0  0  0  0  0  0  0  0  0  0  0  0
   34.8136   -4.4309   16.4527 C   0  0  0  0  0  0  0  0  0  0  0  0
   35.6709   -3.5089   15.8494 C   0  0  0  0  0  0  0  0  0  0  0  0
   36.1244   -3.7200   14.5445 C   0  0  0  0  0  0  0  0  0  0  0  0
   33.5455   -6.5590   16.4411 C   0  0  0  0  0  0  0  0  0  0  0  0
   33.8435   -7.7441   16.3914 O   0  0  0  0  0  0  0  0  0  0  0  0
   32.4529   -6.0540   17.1101 N   0  0  0  0  0  0  0  0  0  0  0  0
   32.3339   -5.0782   17.1637 H   0  0  0  0  0  0  0  0  0  0  0  0
   31.4700   -6.9210   17.7394 C   0  0  0  0  0  0  0  0  0  0  0  0
   30.3842   -7.2845   16.7235 C   0  0  0  0  0  0  0  0  0  0  0  0
   30.9701   -6.2698   19.0155 C   0  0  0  0  0  0  0  0  0  0  0  0
   31.8040   -5.9730   20.1059 C   0  0  0  0  0  0  0  0  0  0  0  0
   31.2803   -5.3812   21.2591 C   0  0  0  0  0  0  0  0  0  0  0  0
   29.9203   -5.0875   21.3472 C   0  0  0  0  0  0  0  0  0  0  0  0
   29.0786   -5.3885   20.2812 C   0  0  0  0  0  0  0  0  0  0  0  0
   29.5972   -5.9783   19.1266 C   0  0  0  0  0  0  0  0  0  0  0  0
   36.0305   -2.3388   16.6065 N   0  0  0  0  0  0  0  0  0  0  0  0
   35.0105   -1.8947   17.5860 C   0  0  0  0  0  0  0  0  0  0  0  0
   36.7217   -1.0484   15.7119 S   0  0  0  0  0  0  0  0  0  0  0  0
   38.4374   -1.5279   15.6555 C   0  0  0  0  0  0  0  0  0  0  0  0
   36.1871   -1.0641   14.3646 O   0  0  0  0  0  0  0  0  0  0  0  0
   36.6304    0.1470   16.5240 O   0  0  0  0  0  0  0  0  0  0  0  0
   35.9633   -6.5928   10.4738 C   0  0  0  0  0  0  0  0  0  0  0  0
   36.1419   -5.3093    9.6366 C   0  0  0  0  0  0  0  0  0  0  0  0
   34.8665   -4.8613    8.9615 C   0  0  0  0  0  0  0  0  0  0  0  0
   33.6331   -4.9600    9.6213 C   0  0  0  0  0  0  0  0  0  0  0  0
   32.4625   -4.5363    8.9908 C   0  0  0  0  0  0  0  0  0  0  0  0
   32.5268   -4.0152    7.7040 C   0  0  0  0  0  0  0  0  0  0  0  0
   31.4025   -3.6067    7.0993 F   0  0  0  0  0  0  0  0  0  0  0  0
   33.7385   -3.9084    7.0346 C   0  0  0  0  0  0  0  0  0  0  0  0
   34.9098   -4.3307    7.6621 C   0  0  0  0  0  0  0  0  0  0  0  0
   37.1956   -7.5378   10.4386 C   0  0  0  0  0  0  0  0  0  0  0  0
   38.4485   -6.8048   10.2011 N   0  0  0  0  0  0  0  0  0  0  0  0
   38.7549   -7.0044    9.2489 H   0  0  0  0  0  0  0  0  0  0  0  0
   39.5690   -7.1423   11.1262 C   0  0  0  0  0  0  0  0  0  0  0  0
   40.6597   -8.1313   10.6310 C   0  0  0  0  0  0  0  0  0  0  0  0
   40.9902   -8.0997    9.1397 C   0  0  0  0  0  0  0  0  0  0  0  0
   41.8829   -7.8671   11.3505 O   0  0  0  0  0  0  0  0  0  0  0  0
   42.1987   -6.9756   11.1350 H   0  0  0  0  0  0  0  0  0  0  0  0
   41.0829   -5.2195   10.9281 N   0  0  0  0  0  0  0  0  0  0  0  0
   40.1798   -5.8592   11.7491 C   0  0  0  0  0  0  0  0  0  0  0  0
   39.9121   -5.4703   12.8863 O   0  0  0  0  0  0  0  0  0  0  0  0
   41.3295   -5.6421   10.0738 H   0  0  0  0  0  0  0  0  0  0  0  0
   41.6827   -3.9478   11.2764 C   0  0  0  0  0  0  0  0  0  0  0  0
   43.9784   -3.0318   10.8043 C   0  0  0  0  0  0  0  0  0  0  0  0
   42.6379   -3.4315   10.1877 C   0  0  0  0  0  0  0  0  0  0  0  0
   42.8631   -4.4746    9.0914 C   0  0  0  0  0  0  0  0  0  0  0  0
 51 52  1  0
 52 53  1  0
 52 50  1  0
 50 46  1  0
 46 47  1  0
 47 48  2  0
 47 41  1  0
 41 39  1  0
 39 38  1  0
 29 38  1  0
 29 30  1  0
 30 31  1  0
 31 32  2  0
 32 33  1  0
 33 34  2  0
 34 35  1  0
 34 36  1  0
 36 37  2  0
 29  1  1  0
  1  2  1  0
  2  3  2  0
  2  5  1  0
  5  6  2  0
  6  7  1  0
  7 11  1  0
 11 12  2  0
 11 13  1  0
 13 15  1  0
 15 16  1  0
 15 17  1  0
 17 18  2  0
 18 19  1  0
 19 20  2  0
 20 21  1  0
 21 22  2  0
  7  8  2  0
  8  9  1  0
  9 23  1  0
 23 24  1  0
 23 25  1  0
 25 26  1  0
 25 27  2  0
 25 28  2  0
  9 10  2  0
 41 42  1  0
 42 43  1  0
 42 44  1  0
 37 31  1  0
 10  5  1  0
 22 17  1  0
 46 49  1  0
 39 40  1  0
  1  4  1  0
 13 14  1  0
 44 45  1  0
M  END
> <minimizedAffinity>
-8.22961

> <CNNscore>
0.3629436195

> <CNNaffinity>
7.1999020576

> <CNN_VS>
2.6131584644

> <CNNaffinity_variance>
0.4196960926

$$$$



 53 55  0  0  0  0  0  0  0  0999 V2000
   41.5409   -3.1748   13.0031 N   0  0  0  0  0  0  0  0  0  0  0  0
   40.9863   -1.9997   13.4391 C   0  0  0  0  0  0  0  0  0  0  0  0
   41.2989   -0.8924   13.0212 O   0  0  0  0  0  0  0  0  0  0  0  0
   41.2568   -4.0189   13.4226 H   0  0  0  0  0  0  0  0  0  0  0  0
   39.8897   -2.1222   14.4251 C   0  0  0  0  0  0  0  0  0  0  0  0
   39.9989   -1.3955   15.6156 C   0  0  0  0  0  0  0  0  0  0  0  0
   38.9617   -1.4430   16.5505 C   0  0  0  0  0  0  0  0  0  0  0  0
   37.8251   -2.2187   16.2977 C   0  0  0  0  0  0  0  0  0  0  0  0
   37.7325   -2.9586   15.1175 C   0  0  0  0  0  0  0  0  0  0  0  0
   38.7690   -2.9207   14.1809 C   0  0  0  0  0  0  0  0  0  0  0  0
   38.9975   -0.6157   17.7783 C   0  0  0  0  0  0  0  0  0  0  0  0
   40.0762   -0.3414   18.2854 O   0  0  0  0  0  0  0  0  0  0  0  0
   37.7767   -0.2052   18.2655 N   0  0  0  0  0  0  0  0  0  0  0  0
   36.9634   -0.4061   17.7484 H   0  0  0  0  0  0  0  0  0  0  0  0
   37.6547    0.5165   19.5217 C   0  0  0  0  0  0  0  0  0  0  0  0
   38.9668    0.4086   20.3027 C   0  0  0  0  0  0  0  0  0  0  0  0
   36.4205    0.0335   20.2604 C   0  0  0  0  0  0  0  0  0  0  0  0
   36.3283   -0.0064   21.6612 C   0  0  0  0  0  0  0  0  0  0  0  0
   35.1660   -0.4723   22.2827 C   0  0  0  0  0  0  0  0  0  0  0  0
   34.0858   -0.9144   21.5203 C   0  0  0  0  0  0  0  0  0  0  0  0
   34.1669   -0.8947   20.1316 C   0  0  0  0  0  0  0  0  0  0  0  0
   35.3252   -0.4289   19.5062 C   0  0  0  0  0  0  0  0  0  0  0  0
   36.5594   -3.7715   14.9307 N   0  0  0  0  0  0  0  0  0  0  0  0
   36.3982   -4.3254   13.5653 C   0  0  0  0  0  0  0  0  0  0  0  0
   35.1022   -3.1499   15.5890 S   0  0  0  0  0  0  0  0  0  0  0  0
   35.2802   -3.5652   17.3132 C   0  0  0  0  0  0  0  0  0  0  0  0
   35.0969   -1.7067   15.4536 O   0  0  0  0  0  0  0  0  0  0  0  0
   34.0098   -3.9407   15.0614 O   0  0  0  0  0  0  0  0  0  0  0  0
   42.5435   -3.2179   11.9325 C   0  0  0  0  0  0  0  0  0  0  0  0
   41.9263   -3.8037   10.6456 C   0  0  0  0  0  0  0  0  0  0  0  0
   41.5035   -5.2465   10.7962 C   0  0  0  0  0  0  0  0  0  0  0  0
   42.0940   -6.2518   10.0172 C   0  0  0  0  0  0  0  0  0  0  0  0
   41.7009   -7.5820   10.1699 C   0  0  0  0  0  0  0  0  0  0  0  0
   40.7197   -7.9045   11.0999 C   0  0  0  0  0  0  0  0  0  0  0  0
   40.3435   -9.1824   11.2477 F   0  0  0  0  0  0  0  0  0  0  0  0
   40.1238   -6.9236   11.8813 C   0  0  0  0  0  0  0  0  0  0  0  0
   40.5148   -5.5936   11.7310 C   0  0  0  0  0  0  0  0  0  0  0  0
   43.1435   -1.7973   11.7467 C   0  0  0  0  0  0  0  0  0  0  0  0
   43.9153   -1.6813   10.4998 N   0  0  0  0  0  0  0  0  0  0  0  0
   44.1288   -2.6234   10.1725 H   0  0  0  0  0  0  0  0  0  0  0  0
   45.1994   -0.9306   10.6131 C   0  0  0  0  0  0  0  0  0  0  0  0
   45.2752    0.2504   11.6192 C   0  0  0  0  0  0  0  0  0  0  0  0
   46.1576    1.4338   11.2250 C   0  0  0  0  0  0  0  0  0  0  0  0
   43.9416    0.7587   11.8353 O   0  0  0  0  0  0  0  0  0  0  0  0
   43.5961    1.1234   11.0055 H   0  0  0  0  0  0  0  0  0  0  0  0
   47.4870   -1.5624    9.9838 N   0  0  0  0  0  0  0  0  0  0  0  0
   46.3995   -1.9031   10.7586 C   0  0  0  0  0  0  0  0  0  0  0  0
   46.3691   -2.9077   11.4700 O   0  0  0  0  0  0  0  0  0  0  0  0
   47.4058   -0.8063    9.3586 H   0  0  0  0  0  0  0  0  0  0  0  0
   48.7453   -2.2764   10.0560 C   0  0  0  0  0  0  0  0  0  0  0  0
   50.5897   -2.4890    8.3574 C   0  0  0  0  0  0  0  0  0  0  0  0
   49.1540   -2.8836    8.7036 C   0  0  0  0  0  0  0  0  0  0  0  0
   49.0221   -4.4077    8.7047 C   0  0  0  0  0  0  0  0  0  0  0  0
 51 52  1  0
 52 53  1  0
 52 50  1  0
 50 46  1  0
 46 47  1  0
 47 48  2  0
 47 41  1  0
 41 39  1  0
 39 38  1  0
 29 38  1  0
 29 30  1  0
 30 31  1  0
 31 32  2  0
 32 33  1  0
 33 34  2  0
 34 35  1  0
 34 36  1  0
 36 37  2  0
 29  1  1  0
  1  2  1  0
  2  3  2  0
  2  5  1  0
  5  6  2  0
  6  7  1  0
  7 11  1  0
 11 12  2  0
 11 13  1  0
 13 15  1  0
 15 16  1  0
 15 17  1  0
 17 18  2  0
 18 19  1  0
 19 20  2  0
 20 21  1  0
 21 22  2  0
  7  8  2  0
  8  9  1  0
  9 23  1  0
 23 24  1  0
 23 25  1  0
 25 26  1  0
 25 27  2  0
 25 28  2  0
  9 10  2  0
 41 42  1  0
 42 43  1  0
 42 44  1  0
 37 31  1  0
 10  5  1  0
 22 17  1  0
 46 49  1  0
 39 40  1  0
  1  4  1  0
 13 14  1  0
 44 45  1  0
M  END
> <minimizedAffinity>
-8.98668

> <CNNscore>
0.3627450168

> <CNNaffinity>
6.9067740440

> <CNN_VS>
2.5053977966

> <CNNaffinity_variance>
0.7689927220

$$$$
