


 19 20  0  0  0  0  0  0  0  0999 V2000
   -7.4381   10.0147   10.5074 C   0  0  0  0  0  0  0  0  0  0  0  0
   -7.3863    9.9536    9.1018 C   0  0  0  0  0  0  0  0  0  0  0  0
   -8.4121    9.3569    8.3678 C   0  0  0  0  0  0  0  0  0  0  0  0
   -8.2966    9.2912    6.4808 Br  0  0  0  0  0  0  0  0  0  0  0  0
   -9.5186    8.8087    9.0083 C   0  0  0  0  0  0  0  0  0  0  0  0
   -9.6101    8.8570   10.4038 C   0  0  0  0  0  0  0  0  0  0  0  0
   -8.5676    9.4558   11.1354 C   0  0  0  0  0  0  0  0  0  0  0  0
  -10.7798    8.2878   11.1023 C   0  0  0  0  0  0  0  0  0  0  0  0
  -11.4720    9.0252   11.9943 C   0  0  0  0  0  0  0  0  0  0  0  0
  -12.6141    8.4925   12.7012 C   0  0  0  0  0  0  0  0  0  0  0  0
  -13.0028    7.2320   12.4843 C   0  0  0  0  0  0  0  0  0  0  0  0
  -12.3205    6.4474   11.5943 N   0  0  0  0  0  0  0  0  0  0  0  0
  -11.2238    6.8647   10.8727 C   0  0  0  0  0  0  0  0  0  0  0  0
  -10.6558    6.1056   10.0935 O   0  0  0  0  0  0  0  0  0  0  0  0
  -12.6342    5.5237   11.4611 H   0  0  0  0  0  0  0  0  0  0  0  0
   -6.7026   11.2046   12.6829 C   0  0  0  0  0  0  0  0  0  0  0  0
   -6.2871   10.6658   11.2952 C   0  0  0  0  0  0  0  0  0  0  0  0
   -5.7204   11.8583   10.4946 C   0  0  0  0  0  0  0  0  0  0  0  0
   -5.1656    9.6298   11.5258 C   0  0  0  0  0  0  0  0  0  0  0  0
 16 17  1  0
 17 18  1  0
 17 19  1  0
 17  1  1  0
  1  2  2  0
  2  3  1  0
  3  4  1  0
  3  5  2  0
  5  6  1  0
  6  8  1  0
  8  9  2  0
  9 10  1  0
 10 11  2  0
 11 12  1  0
 12 13  1  0
 13 14  2  0
  6  7  2  0
  7  1  1  0
 13  8  1  0
 12 15  1  0
M  END
> <minimizedAffinity>
-8.28443

> <CNNscore>
0.9776920676

> <CNNaffinity>
6.1716780663

> <CNN_VS>
6.0340008736

> <CNNaffinity_variance>
0.0147501258

$$$$



 19 20  0  0  0  0  0  0  0  0999 V2000
   -9.5422    8.9894    7.1888 C   0  0  0  0  0  0  0  0  0  0  0  0
   -8.2785    9.4890    7.5571 C   0  0  0  0  0  0  0  0  0  0  0  0
   -7.9097    9.5989    8.8985 C   0  0  0  0  0  0  0  0  0  0  0  0
   -6.2038   10.2825    9.3469 Br  0  0  0  0  0  0  0  0  0  0  0  0
   -8.7829    9.2123    9.9099 C   0  0  0  0  0  0  0  0  0  0  0  0
  -10.0449    8.7035    9.5834 C   0  0  0  0  0  0  0  0  0  0  0  0
  -10.4097    8.6020    8.2280 C   0  0  0  0  0  0  0  0  0  0  0  0
  -10.9836    8.2804   10.6418 C   0  0  0  0  0  0  0  0  0  0  0  0
  -11.3886    9.1516   11.5881 C   0  0  0  0  0  0  0  0  0  0  0  0
  -12.2978    8.7643   12.6422 C   0  0  0  0  0  0  0  0  0  0  0  0
  -12.7518    7.5083   12.7018 C   0  0  0  0  0  0  0  0  0  0  0  0
  -12.3564    6.5910   11.7662 N   0  0  0  0  0  0  0  0  0  0  0  0
  -11.4968    6.8644   10.7251 C   0  0  0  0  0  0  0  0  0  0  0  0
  -11.1800    5.9912    9.9231 O   0  0  0  0  0  0  0  0  0  0  0  0
  -12.7096    5.6752   11.8423 H   0  0  0  0  0  0  0  0  0  0  0  0
  -10.2181    7.4501    5.2233 C   0  0  0  0  0  0  0  0  0  0  0  0
   -9.9307    8.8910    5.7026 C   0  0  0  0  0  0  0  0  0  0  0  0
   -8.7824    9.4411    4.8291 C   0  0  0  0  0  0  0  0  0  0  0  0
  -11.2075    9.7202    5.4446 C   0  0  0  0  0  0  0  0  0  0  0  0
 16 17  1  0
 17 18  1  0
 17 19  1  0
 17  1  1  0
  1  2  2  0
  2  3  1  0
  3  4  1  0
  3  5  2  0
  5  6  1  0
  6  8  1  0
  8  9  2  0
  9 10  1  0
 10 11  2  0
 11 12  1  0
 12 13  1  0
 13 14  2  0
  6  7  2  0
  7  1  1  0
 13  8  1  0
 12 15  1  0
M  END
> <minimizedAffinity>
-6.96250

> <CNNscore>
0.9382361770

> <CNNaffinity>
5.6518263817

> <CNN_VS>
5.3027482033

> <CNNaffinity_variance>
0.0340665206

$$$$



 19 20  0  0  0  0  0  0  0  0999 V2000
   -7.8401    9.8183   11.0614 C   0  0  0  0  0  0  0  0  0  0  0  0
   -7.6479    9.7241    9.6699 C   0  0  0  0  0  0  0  0  0  0  0  0
   -8.6849    9.3286    8.8240 C   0  0  0  0  0  0  0  0  0  0  0  0
   -8.3789    9.2091    6.9610 Br  0  0  0  0  0  0  0  0  0  0  0  0
   -9.9412    9.0201    9.3355 C   0  0  0  0  0  0  0  0  0  0  0  0
  -10.1734    9.1095   10.7125 C   0  0  0  0  0  0  0  0  0  0  0  0
   -9.1196    9.5037   11.5579 C   0  0  0  0  0  0  0  0  0  0  0  0
  -11.5019    8.7938   11.2746 C   0  0  0  0  0  0  0  0  0  0  0  0
  -11.8252    7.5260   11.6009 C   0  0  0  0  0  0  0  0  0  0  0  0
  -13.1204    7.1847   12.1427 C   0  0  0  0  0  0  0  0  0  0  0  0
  -14.0394    8.1387   12.3225 C   0  0  0  0  0  0  0  0  0  0  0  0
  -13.7541    9.4364   11.9941 N   0  0  0  0  0  0  0  0  0  0  0  0
  -12.5503    9.8596   11.4748 C   0  0  0  0  0  0  0  0  0  0  0  0
  -12.3634   11.0404   11.1979 O   0  0  0  0  0  0  0  0  0  0  0  0
  -14.4554   10.1120   12.1386 H   0  0  0  0  0  0  0  0  0  0  0  0
   -7.0628   10.3689   13.4660 C   0  0  0  0  0  0  0  0  0  0  0  0
   -6.6764   10.2435   11.9749 C   0  0  0  0  0  0  0  0  0  0  0  0
   -6.1411   11.6204   11.5257 C   0  0  0  0  0  0  0  0  0  0  0  0
   -5.5397    9.2024   11.8848 C   0  0  0  0  0  0  0  0  0  0  0  0
 16 17  1  0
 17 18  1  0
 17 19  1  0
 17  1  1  0
  1  2  2  0
  2  3  1  0
  3  4  1  0
  3  5  2  0
  5  6  1  0
  6  8  1  0
  8  9  2  0
  9 10  1  0
 10 11  2  0
 11 12  1  0
 12 13  1  0
 13 14  2  0
  6  7  2  0
  7  1  1  0
 13  8  1  0
 12 15  1  0
M  END
> <minimizedAffinity>
-7.82495

> <CNNscore>
0.8939861655

> <CNNaffinity>
5.5116877556

> <CNN_VS>
4.9273724556

> <CNNaffinity_variance>
0.1016186401

$$$$



 19 20  0  0  0  0  0  0  0  0999 V2000
   -8.1191    9.7552   10.9051 C   0  0  0  0  0  0  0  0  0  0  0  0
   -9.2450    9.5597   11.7274 C   0  0  0  0  0  0  0  0  0  0  0  0
  -10.4666    9.1500   11.1916 C   0  0  0  0  0  0  0  0  0  0  0  0
  -11.9549    8.9069   12.3338 Br  0  0  0  0  0  0  0  0  0  0  0  0
  -10.6027    8.9192    9.8267 C   0  0  0  0  0  0  0  0  0  0  0  0
   -9.5042    9.0950    8.9779 C   0  0  0  0  0  0  0  0  0  0  0  0
   -8.2780    9.5140    9.5270 C   0  0  0  0  0  0  0  0  0  0  0  0
   -9.6257    8.8478    7.5272 C   0  0  0  0  0  0  0  0  0  0  0  0
   -9.0903    9.7081    6.6374 C   0  0  0  0  0  0  0  0  0  0  0  0
   -9.2019    9.4986    5.2121 C   0  0  0  0  0  0  0  0  0  0  0  0
   -9.8600    8.4327    4.7453 C   0  0  0  0  0  0  0  0  0  0  0  0
  -10.4268    7.5414    5.6155 N   0  0  0  0  0  0  0  0  0  0  0  0
  -10.3724    7.6535    6.9874 C   0  0  0  0  0  0  0  0  0  0  0  0
  -10.9079    6.8185    7.7100 O   0  0  0  0  0  0  0  0  0  0  0  0
  -10.9049    6.7690    5.2360 H   0  0  0  0  0  0  0  0  0  0  0  0
   -6.9333   10.8939   12.9018 C   0  0  0  0  0  0  0  0  0  0  0  0
   -6.7862   10.2211   11.5182 C   0  0  0  0  0  0  0  0  0  0  0  0
   -6.1155   11.2487   10.5810 C   0  0  0  0  0  0  0  0  0  0  0  0
   -5.8469    9.0089   11.6986 C   0  0  0  0  0  0  0  0  0  0  0  0
 16 17  1  0
 17 18  1  0
 17 19  1  0
 17  1  1  0
  1  2  2  0
  2  3  1  0
  3  4  1  0
  3  5  2  0
  5  6  1  0
  6  8  1  0
  8  9  2  0
  9 10  1  0
 10 11  2  0
 11 12  1  0
 12 13  1  0
 13 14  2  0
  6  7  2  0
  7  1  1  0
 13  8  1  0
 12 15  1  0
M  END
> <minimizedAffinity>
-7.20264

> <CNNscore>
0.8056370616

> <CNNaffinity>
5.5912346840

> <CNN_VS>
4.5045061111

> <CNNaffinity_variance>
0.2436779588

$$$$



 19 20  0  0  0  0  0  0  0  0999 V2000
   -8.0478    9.9312   11.1203 C   0  0  0  0  0  0  0  0  0  0  0  0
   -9.2051    9.5385   11.8192 C   0  0  0  0  0  0  0  0  0  0  0  0
  -10.3987    9.2741   11.1465 C   0  0  0  0  0  0  0  0  0  0  0  0
  -11.9310    8.7562   12.1276 Br  0  0  0  0  0  0  0  0  0  0  0  0
  -10.4749    9.3881    9.7622 C   0  0  0  0  0  0  0  0  0  0  0  0
   -9.3437    9.7682    9.0316 C   0  0  0  0  0  0  0  0  0  0  0  0
   -8.1462   10.0383    9.7198 C   0  0  0  0  0  0  0  0  0  0  0  0
   -9.4016    9.8875    7.5610 C   0  0  0  0  0  0  0  0  0  0  0  0
   -8.6377    9.0988    6.7781 C   0  0  0  0  0  0  0  0  0  0  0  0
   -8.6647    9.1994    5.3369 C   0  0  0  0  0  0  0  0  0  0  0  0
   -9.4559   10.1013    4.7472 C   0  0  0  0  0  0  0  0  0  0  0  0
  -10.2389   10.9278    5.5067 N   0  0  0  0  0  0  0  0  0  0  0  0
  -10.2837   10.9063    6.8834 C   0  0  0  0  0  0  0  0  0  0  0  0
  -11.0068   11.6807    7.5028 O   0  0  0  0  0  0  0  0  0  0  0  0
  -10.8077   11.5807    5.0384 H   0  0  0  0  0  0  0  0  0  0  0  0
   -5.6936    9.1031   11.7999 C   0  0  0  0  0  0  0  0  0  0  0  0
   -6.7469   10.2308   11.8867 C   0  0  0  0  0  0  0  0  0  0  0  0
   -7.0640   10.4437   13.3828 C   0  0  0  0  0  0  0  0  0  0  0  0
   -6.0934   11.5093   11.3188 C   0  0  0  0  0  0  0  0  0  0  0  0
 16 17  1  0
 17 18  1  0
 17 19  1  0
 17  1  1  0
  1  2  2  0
  2  3  1  0
  3  4  1  0
  3  5  2  0
  5  6  1  0
  6  8  1  0
  8  9  2  0
  9 10  1  0
 10 11  2  0
 11 12  1  0
 12 13  1  0
 13 14  2  0
  6  7  2  0
  7  1  1  0
 13  8  1  0
 12 15  1  0
M  END
> <minimizedAffinity>
-7.41168

> <CNNscore>
0.6852478981

> <CNNaffinity>
5.2404103279

> <CNN_VS>
3.5909800529

> <CNNaffinity_variance>
0.5848405957

$$$$



 19 20  0  0  0  0  0  0  0  0999 V2000
  -10.2173    9.0362    6.2872 C   0  0  0  0  0  0  0  0  0  0  0  0
   -9.0813    9.4204    7.0248 C   0  0  0  0  0  0  0  0  0  0  0  0
   -9.0674    9.3461    8.4181 C   0  0  0  0  0  0  0  0  0  0  0  0
   -7.5211    9.8799    9.3683 Br  0  0  0  0  0  0  0  0  0  0  0  0
  -10.1783    8.8849    9.1167 C   0  0  0  0  0  0  0  0  0  0  0  0
  -11.3236    8.4864    8.4185 C   0  0  0  0  0  0  0  0  0  0  0  0
  -11.3299    8.5704    7.0137 C   0  0  0  0  0  0  0  0  0  0  0  0
  -12.5106    7.9865    9.1407 C   0  0  0  0  0  0  0  0  0  0  0  0
  -13.2276    8.8084    9.9337 C   0  0  0  0  0  0  0  0  0  0  0  0
  -14.3872    8.3459   10.6612 C   0  0  0  0  0  0  0  0  0  0  0  0
  -14.7677    7.0681   10.5647 C   0  0  0  0  0  0  0  0  0  0  0  0
  -14.0605    6.1994    9.7784 N   0  0  0  0  0  0  0  0  0  0  0  0
  -12.9457    6.5454    9.0468 C   0  0  0  0  0  0  0  0  0  0  0  0
  -12.3557    5.7129    8.3649 O   0  0  0  0  0  0  0  0  0  0  0  0
  -14.3689    5.2655    9.7325 H   0  0  0  0  0  0  0  0  0  0  0  0
   -8.9189    9.7520    4.1679 C   0  0  0  0  0  0  0  0  0  0  0  0
  -10.2129    9.1407    4.7514 C   0  0  0  0  0  0  0  0  0  0  0  0
  -11.3862   10.0315    4.2890 C   0  0  0  0  0  0  0  0  0  0  0  0
  -10.3699    7.7334    4.1357 C   0  0  0  0  0  0  0  0  0  0  0  0
 16 17  1  0
 17 18  1  0
 17 19  1  0
 17  1  1  0
  1  2  2  0
  2  3  1  0
  3  4  1  0
  3  5  2  0
  5  6  1  0
  6  8  1  0
  8  9  2  0
  9 10  1  0
 10 11  2  0
 11 12  1  0
 12 13  1  0
 13 14  2  0
  6  7  2  0
  7  1  1  0
 13  8  1  0
 12 15  1  0
M  END
> <minimizedAffinity>
-5.88984

> <CNNscore>
0.6643164754

> <CNNaffinity>
5.2949919701

> <CNN_VS>
3.5175504684

> <CNNaffinity_variance>
0.0007244708

$$$$



 19 20  0  0  0  0  0  0  0  0999 V2000
   -9.4884    9.2479    8.7945 C   0  0  0  0  0  0  0  0  0  0  0  0
   -8.4567    9.6576    9.6605 C   0  0  0  0  0  0  0  0  0  0  0  0
   -8.6643    9.7471   11.0375 C   0  0  0  0  0  0  0  0  0  0  0  0
   -7.2510   10.3093   12.1623 Br  0  0  0  0  0  0  0  0  0  0  0  0
   -9.8994    9.4285   11.5925 C   0  0  0  0  0  0  0  0  0  0  0  0
  -10.9473    9.0096   10.7651 C   0  0  0  0  0  0  0  0  0  0  0  0
  -10.7297    8.9281    9.3771 C   0  0  0  0  0  0  0  0  0  0  0  0
  -12.2636    8.6594   11.3352 C   0  0  0  0  0  0  0  0  0  0  0  0
  -12.4858    7.4306   11.8443 C   0  0  0  0  0  0  0  0  0  0  0  0
  -13.7660    7.0552   12.3992 C   0  0  0  0  0  0  0  0  0  0  0  0
  -14.7723    7.9352   12.4067 C   0  0  0  0  0  0  0  0  0  0  0  0
  -14.5905    9.1894   11.8900 N   0  0  0  0  0  0  0  0  0  0  0  0
  -13.4095    9.6402   11.3424 C   0  0  0  0  0  0  0  0  0  0  0  0
  -13.3173   10.7781   10.8920 O   0  0  0  0  0  0  0  0  0  0  0  0
  -15.3541    9.8105   11.9110 H   0  0  0  0  0  0  0  0  0  0  0  0
   -7.7434    9.1150    6.8900 C   0  0  0  0  0  0  0  0  0  0  0  0
   -9.2385    9.1707    7.2775 C   0  0  0  0  0  0  0  0  0  0  0  0
   -9.8415   10.4142    6.5889 C   0  0  0  0  0  0  0  0  0  0  0  0
   -9.9049    7.9003    6.7064 C   0  0  0  0  0  0  0  0  0  0  0  0
 16 17  1  0
 17 18  1  0
 17 19  1  0
 17  1  1  0
  1  2  2  0
  2  3  1  0
  3  4  1  0
  3  5  2  0
  5  6  1  0
  6  8  1  0
  8  9  2  0
  9 10  1  0
 10 11  2  0
 11 12  1  0
 12 13  1  0
 13 14  2  0
  6  7  2  0
  7  1  1  0
 13  8  1  0
 12 15  1  0
M  END
> <minimizedAffinity>
-6.77860

> <CNNscore>
0.5191095471

> <CNNaffinity>
5.0298686028

> <CNN_VS>
2.6110527515

> <CNNaffinity_variance>
0.1293505728

$$$$



 19 20  0  0  0  0  0  0  0  0999 V2000
   -7.9848    9.9946   10.8261 C   0  0  0  0  0  0  0  0  0  0  0  0
   -7.6909    9.7201    9.4769 C   0  0  0  0  0  0  0  0  0  0  0  0
   -8.7077    9.4776    8.5525 C   0  0  0  0  0  0  0  0  0  0  0  0
   -8.2655    9.1058    6.7511 Br  0  0  0  0  0  0  0  0  0  0  0  0
  -10.0430    9.5050    8.9410 C   0  0  0  0  0  0  0  0  0  0  0  0
  -10.3755    9.7821   10.2716 C   0  0  0  0  0  0  0  0  0  0  0  0
   -9.3427   10.0197   11.1975 C   0  0  0  0  0  0  0  0  0  0  0  0
  -11.7872    9.8236   10.7026 C   0  0  0  0  0  0  0  0  0  0  0  0
  -12.5477   10.9100   10.4577 C   0  0  0  0  0  0  0  0  0  0  0  0
  -13.9286   10.9842   10.8764 C   0  0  0  0  0  0  0  0  0  0  0  0
  -14.4807    9.9602   11.5350 C   0  0  0  0  0  0  0  0  0  0  0  0
  -13.7395    8.8435   11.8122 N   0  0  0  0  0  0  0  0  0  0  0  0
  -12.4197    8.6785   11.4535 C   0  0  0  0  0  0  0  0  0  0  0  0
  -11.8126    7.6508   11.7388 O   0  0  0  0  0  0  0  0  0  0  0  0
  -14.1785    8.1098   12.3002 H   0  0  0  0  0  0  0  0  0  0  0  0
   -6.1547   11.6182   11.6655 C   0  0  0  0  0  0  0  0  0  0  0  0
   -6.8446   10.2450   11.8296 C   0  0  0  0  0  0  0  0  0  0  0  0
   -5.7553    9.1645   11.6567 C   0  0  0  0  0  0  0  0  0  0  0  0
   -7.3984   10.1825   13.2696 C   0  0  0  0  0  0  0  0  0  0  0  0
 16 17  1  0
 17 18  1  0
 17 19  1  0
 17  1  1  0
  1  2  2  0
  2  3  1  0
  3  4  1  0
  3  5  2  0
  5  6  1  0
  6  8  1  0
  8  9  2  0
  9 10  1  0
 10 11  2  0
 11 12  1  0
 12 13  1  0
 13 14  2  0
  6  7  2  0
  7  1  1  0
 13  8  1  0
 12 15  1  0
M  END
> <minimizedAffinity>
-6.80611

> <CNNscore>
0.5030749440

> <CNNaffinity>
4.9177651405

> <CNN_VS>
2.4740045071

> <CNNaffinity_variance>
0.3261987269

$$$$



 19 20  0  0  0  0  0  0  0  0999 V2000
  -15.5133    8.5989   10.6467 C   0  0  0  0  0  0  0  0  0  0  0  0
  -16.2285    9.6355   11.2761 C   0  0  0  0  0  0  0  0  0  0  0  0
  -15.8441   10.9689   11.1296 C   0  0  0  0  0  0  0  0  0  0  0  0
  -16.8307   12.3282   11.9998 Br  0  0  0  0  0  0  0  0  0  0  0  0
  -14.7426   11.3098   10.3515 C   0  0  0  0  0  0  0  0  0  0  0  0
  -14.0110   10.3084    9.7036 C   0  0  0  0  0  0  0  0  0  0  0  0
  -14.4032    8.9661    9.8622 C   0  0  0  0  0  0  0  0  0  0  0  0
  -12.8433   10.6500    8.8669 C   0  0  0  0  0  0  0  0  0  0  0  0
  -12.9449   10.6699    7.5223 C   0  0  0  0  0  0  0  0  0  0  0  0
  -11.8176   10.9900    6.6771 C   0  0  0  0  0  0  0  0  0  0  0  0
  -10.6307   11.2666    7.2265 C   0  0  0  0  0  0  0  0  0  0  0  0
  -10.4835   11.2468    8.5870 N   0  0  0  0  0  0  0  0  0  0  0  0
  -11.4968   10.9560    9.4738 C   0  0  0  0  0  0  0  0  0  0  0  0
  -11.2934   10.9517   10.6841 O   0  0  0  0  0  0  0  0  0  0  0  0
   -9.5947   11.4540    8.9563 H   0  0  0  0  0  0  0  0  0  0  0  0
  -17.4619    6.8983   10.6259 C   0  0  0  0  0  0  0  0  0  0  0  0
  -15.9490    7.1346   10.8351 C   0  0  0  0  0  0  0  0  0  0  0  0
  -15.6100    6.6734   12.2692 C   0  0  0  0  0  0  0  0  0  0  0  0
  -15.2035    6.2377    9.8232 C   0  0  0  0  0  0  0  0  0  0  0  0
 16 17  1  0
 17 18  1  0
 17 19  1  0
 17  1  1  0
  1  2  2  0
  2  3  1  0
  3  4  1  0
  3  5  2  0
  5  6  1  0
  6  8  1  0
  8  9  2  0
  9 10  1  0
 10 11  2  0
 11 12  1  0
 12 13  1  0
 13 14  2  0
  6  7  2  0
  7  1  1  0
 13  8  1  0
 12 15  1  0
M  END
> <minimizedAffinity>
-5.26008

> <CNNscore>
0.4241218567

> <CNNaffinity>
5.0694050789

> <CNN_VS>
2.1500453949

> <CNNaffinity_variance>
0.1697014719

$$$$
