


 21 24  0  0  0  0  0  0  0  0999 V2000
    6.5717   69.3182   65.8352 C   0  0  0  0  0  0  0  0  0  0  0  0
    5.4831   68.9384   64.8747 C   0  0  0  0  0  0  0  0  0  0  0  0
    5.6187   69.0751   63.5424 C   0  0  0  0  0  0  0  0  0  0  0  0
    4.5277   68.7029   62.5563 C   0  0  0  0  0  0  0  0  0  0  0  0
    4.8150   67.3008   61.9806 C   0  0  0  0  0  0  0  0  0  0  0  0
    4.4109   66.1847   62.9162 C   0  0  0  0  0  0  0  0  0  0  0  0
    4.8312   64.9157   62.5789 N   0  0  0  0  0  0  0  0  0  0  0  0
    4.5854   63.7904   63.3238 C   0  0  0  0  0  0  0  0  0  0  0  0
    4.9719   62.6761   62.9913 O   0  0  0  0  0  0  0  0  0  0  0  0
    3.8203   63.9998   64.5735 C   0  0  0  0  0  0  0  0  0  0  0  0
    3.4121   65.2337   64.8985 C   0  0  0  0  0  0  0  0  0  0  0  0
    3.6945   66.3825   64.0456 C   0  0  0  0  0  0  0  0  0  0  0  0
    3.1888   67.7801   64.4652 C   0  0  0  0  0  0  0  0  0  0  0  0
    4.2129   68.3802   65.4950 C   0  0  0  0  0  0  0  0  0  0  0  0
    1.8555   67.7343   65.1206 N   0  0  0  0  0  0  0  0  0  0  0  0
    0.7646   67.4073   64.1994 C   0  0  0  0  0  0  0  0  0  0  0  0
    0.6697   68.4040   63.0504 C   0  0  0  0  0  0  0  0  0  0  0  0
    1.9842   68.4634   62.2836 C   0  0  0  0  0  0  0  0  0  0  0  0
    3.1474   68.7516   63.2474 C   0  0  0  0  0  0  0  0  0  0  0  0
    5.3436   64.8098   61.7449 H   0  0  0  0  0  0  0  0  0  0  0  0
    1.6669   68.6476   65.5337 H   0  0  0  0  0  0  0  0  0  0  0  0
  1  2  1  0
  2  3  2  0
  3  4  1  0
  4  5  1  0
  5  6  1  0
  6  7  1  0
  7  8  1  0
  8  9  2  0
  8 10  1  0
 10 11  2  0
 11 12  1  0
 12 13  1  0
 13 14  1  0
 13 15  1  0
 15 16  1  0
 16 17  1  0
 17 18  1  0
 19 18  1  0
 14  2  1  0
 19  4  1  0
 12  6  2  0
 19 13  1  0
  7 20  1  0
 15 21  1  0
M  END
> <minimizedAffinity>
-11.05310

> <CNNscore>
0.9724673033

> <CNNaffinity>
7.3652873039

> <CNN_VS>
7.1625008583

> <CNNaffinity_variance>
0.3579770327

$$$$



 21 24  0  0  0  0  0  0  0  0999 V2000
    4.1704   63.4802   63.9148 C   0  0  0  0  0  0  0  0  0  0  0  0
    4.4160   64.9598   63.9637 C   0  0  0  0  0  0  0  0  0  0  0  0
    5.3468   65.5604   63.1989 C   0  0  0  0  0  0  0  0  0  0  0  0
    5.6141   67.0531   63.2389 C   0  0  0  0  0  0  0  0  0  0  0  0
    4.8734   67.7371   62.0713 C   0  0  0  0  0  0  0  0  0  0  0  0
    3.4028   67.9485   62.3485 C   0  0  0  0  0  0  0  0  0  0  0  0
    2.6261   68.3482   61.2819 N   0  0  0  0  0  0  0  0  0  0  0  0
    1.2717   68.5574   61.3402 C   0  0  0  0  0  0  0  0  0  0  0  0
    0.6126   68.9163   60.3714 O   0  0  0  0  0  0  0  0  0  0  0  0
    0.6389   68.3169   62.6565 C   0  0  0  0  0  0  0  0  0  0  0  0
    1.3960   67.9296   63.6917 C   0  0  0  0  0  0  0  0  0  0  0  0
    2.8367   67.7457   63.5595 C   0  0  0  0  0  0  0  0  0  0  0  0
    3.6609   67.3091   64.7904 C   0  0  0  0  0  0  0  0  0  0  0  0
    3.5437   65.7479   64.9268 C   0  0  0  0  0  0  0  0  0  0  0  0
    3.1685   67.9163   66.0546 N   0  0  0  0  0  0  0  0  0  0  0  0
    3.4317   69.3540   66.1513 C   0  0  0  0  0  0  0  0  0  0  0  0
    4.9188   69.6705   66.0468 C   0  0  0  0  0  0  0  0  0  0  0  0
    5.4894   69.1343   64.7405 C   0  0  0  0  0  0  0  0  0  0  0  0
    5.1725   67.6360   64.5992 C   0  0  0  0  0  0  0  0  0  0  0  0
    3.0750   68.4938   60.4179 H   0  0  0  0  0  0  0  0  0  0  0  0
    3.6276   67.4504   66.8373 H   0  0  0  0  0  0  0  0  0  0  0  0
  1  2  1  0
  2  3  2  0
  3  4  1  0
  4  5  1  0
  5  6  1  0
  6  7  1  0
  7  8  1  0
  8  9  2  0
  8 10  1  0
 10 11  2  0
 11 12  1  0
 12 13  1  0
 13 14  1  0
 13 15  1  0
 15 16  1  0
 16 17  1  0
 17 18  1  0
 19 18  1  0
 14  2  1  0
 19  4  1  0
 12  6  2  0
 19 13  1  0
  7 20  1  0
 15 21  1  0
M  END
> <minimizedAffinity>
-9.98449

> <CNNscore>
0.9369267821

> <CNNaffinity>
7.2472057343

> <CNN_VS>
6.7901010513

> <CNNaffinity_variance>
0.5393859744

$$$$



 21 24  0  0  0  0  0  0  0  0999 V2000
    5.8927   70.2407   65.6726 C   0  0  0  0  0  0  0  0  0  0  0  0
    5.0351   69.0352   65.4219 C   0  0  0  0  0  0  0  0  0  0  0  0
    3.8831   68.8211   66.0845 C   0  0  0  0  0  0  0  0  0  0  0  0
    3.0061   67.6058   65.8497 C   0  0  0  0  0  0  0  0  0  0  0  0
    1.8540   67.9828   64.8956 C   0  0  0  0  0  0  0  0  0  0  0  0
    2.2757   68.0135   63.4445 C   0  0  0  0  0  0  0  0  0  0  0  0
    1.3733   68.5520   62.5521 N   0  0  0  0  0  0  0  0  0  0  0  0
    1.5974   68.6897   61.2058 C   0  0  0  0  0  0  0  0  0  0  0  0
    0.7700   69.1705   60.4404 O   0  0  0  0  0  0  0  0  0  0  0  0
    2.9159   68.2231   60.7214 C   0  0  0  0  0  0  0  0  0  0  0  0
    3.7906   67.6991   61.5904 C   0  0  0  0  0  0  0  0  0  0  0  0
    3.4747   67.5665   63.0080 C   0  0  0  0  0  0  0  0  0  0  0  0
    4.5178   66.9440   63.9616 C   0  0  0  0  0  0  0  0  0  0  0  0
    5.5405   68.0668   64.3653 C   0  0  0  0  0  0  0  0  0  0  0  0
    5.2815   65.8357   63.3310 N   0  0  0  0  0  0  0  0  0  0  0  0
    4.4817   64.6282   63.1118 C   0  0  0  0  0  0  0  0  0  0  0  0
    3.8927   64.0901   64.4102 C   0  0  0  0  0  0  0  0  0  0  0  0
    3.0380   65.1514   65.0904 C   0  0  0  0  0  0  0  0  0  0  0  0
    3.8487   66.4448   65.2775 C   0  0  0  0  0  0  0  0  0  0  0  0
    0.5075   68.8593   62.9059 H   0  0  0  0  0  0  0  0  0  0  0  0
    6.0662   65.5978   63.9377 H   0  0  0  0  0  0  0  0  0  0  0  0
  1  2  1  0
  2  3  2  0
  3  4  1  0
  4  5  1  0
  5  6  1  0
  6  7  1  0
  7  8  1  0
  8  9  2  0
  8 10  1  0
 10 11  2  0
 11 12  1  0
 12 13  1  0
 13 14  1  0
 13 15  1  0
 15 16  1  0
 16 17  1  0
 17 18  1  0
 19 18  1  0
 14  2  1  0
 19  4  1  0
 12  6  2  0
 19 13  1  0
  7 20  1  0
 15 21  1  0
M  END
> <minimizedAffinity>
-10.47642

> <CNNscore>
0.8608960509

> <CNNaffinity>
7.0019211769

> <CNN_VS>
6.0279264450

> <CNNaffinity_variance>
0.4900732040

$$$$



 21 24  0  0  0  0  0  0  0  0999 V2000
    4.6378   63.5979   63.5429 C   0  0  0  0  0  0  0  0  0  0  0  0
    4.7132   65.0937   63.4494 C   0  0  0  0  0  0  0  0  0  0  0  0
    4.9360   65.7317   62.2852 C   0  0  0  0  0  0  0  0  0  0  0  0
    5.0219   67.2420   62.1717 C   0  0  0  0  0  0  0  0  0  0  0  0
    3.6660   67.7968   61.6885 C   0  0  0  0  0  0  0  0  0  0  0  0
    2.6405   67.8943   62.7945 C   0  0  0  0  0  0  0  0  0  0  0  0
    1.3450   68.1685   62.4109 N   0  0  0  0  0  0  0  0  0  0  0  0
    0.2813   68.2622   63.2719 C   0  0  0  0  0  0  0  0  0  0  0  0
   -0.8580   68.5113   62.8956 O   0  0  0  0  0  0  0  0  0  0  0  0
    0.5887   68.0374   64.7022 C   0  0  0  0  0  0  0  0  0  0  0  0
    1.8486   67.7722   65.0726 C   0  0  0  0  0  0  0  0  0  0  0  0
    2.9343   67.7071   64.1009 C   0  0  0  0  0  0  0  0  0  0  0  0
    4.3694   67.4089   64.5871 C   0  0  0  0  0  0  0  0  0  0  0  0
    4.5152   65.8529   64.7510 C   0  0  0  0  0  0  0  0  0  0  0  0
    4.6719   68.0369   65.9000 N   0  0  0  0  0  0  0  0  0  0  0  0
    4.7939   69.4951   65.8338 C   0  0  0  0  0  0  0  0  0  0  0  0
    5.8825   69.9333   64.8614 C   0  0  0  0  0  0  0  0  0  0  0  0
    5.6100   69.3806   63.4687 C   0  0  0  0  0  0  0  0  0  0  0  0
    5.4246   67.8551   63.5308 C   0  0  0  0  0  0  0  0  0  0  0  0
    1.1712   68.3068   61.4517 H   0  0  0  0  0  0  0  0  0  0  0  0
    5.5517   67.6543   66.2462 H   0  0  0  0  0  0  0  0  0  0  0  0
  1  2  1  0
  2  3  2  0
  3  4  1  0
  4  5  1  0
  5  6  1  0
  6  7  1  0
  7  8  1  0
  8  9  2  0
  8 10  1  0
 10 11  2  0
 11 12  1  0
 12 13  1  0
 13 14  1  0
 13 15  1  0
 15 16  1  0
 16 17  1  0
 17 18  1  0
 19 18  1  0
 14  2  1  0
 19  4  1  0
 12  6  2  0
 19 13  1  0
  7 20  1  0
 15 21  1  0
M  END
> <minimizedAffinity>
-9.65465

> <CNNscore>
0.6795347333

> <CNNaffinity>
6.7904243469

> <CNN_VS>
4.6143293381

> <CNNaffinity_variance>
0.4461110532

$$$$



 21 24  0  0  0  0  0  0  0  0999 V2000
    0.2105   68.4681   61.6978 C   0  0  0  0  0  0  0  0  0  0  0  0
    1.2314   68.4253   62.7968 C   0  0  0  0  0  0  0  0  0  0  0  0
    0.8872   68.3706   64.0970 C   0  0  0  0  0  0  0  0  0  0  0  0
    1.9041   68.3331   65.2221 C   0  0  0  0  0  0  0  0  0  0  0  0
    2.1012   66.8750   65.6854 C   0  0  0  0  0  0  0  0  0  0  0  0
    3.0135   66.0850   64.7754 C   0  0  0  0  0  0  0  0  0  0  0  0
    3.0682   64.7240   64.9887 N   0  0  0  0  0  0  0  0  0  0  0  0
    3.8149   63.8483   64.2422 C   0  0  0  0  0  0  0  0  0  0  0  0
    3.8424   62.6432   64.4626 O   0  0  0  0  0  0  0  0  0  0  0  0
    4.5940   64.4474   63.1354 C   0  0  0  0  0  0  0  0  0  0  0  0
    4.5401   65.7703   62.9309 C   0  0  0  0  0  0  0  0  0  0  0  0
    3.7372   66.6436   63.7794 C   0  0  0  0  0  0  0  0  0  0  0  0
    3.7223   68.1630   63.5036 C   0  0  0  0  0  0  0  0  0  0  0  0
    2.6856   68.4400   62.3556 C   0  0  0  0  0  0  0  0  0  0  0  0
    5.0440   68.6780   63.0596 N   0  0  0  0  0  0  0  0  0  0  0  0
    6.0519   68.6887   64.1226 C   0  0  0  0  0  0  0  0  0  0  0  0
    5.6153   69.5318   65.3147 C   0  0  0  0  0  0  0  0  0  0  0  0
    4.2915   69.0254   65.8721 C   0  0  0  0  0  0  0  0  0  0  0  0
    3.2375   68.9563   64.7543 C   0  0  0  0  0  0  0  0  0  0  0  0
    2.5338   64.3548   65.7285 H   0  0  0  0  0  0  0  0  0  0  0  0
    4.9218   69.6322   62.7205 H   0  0  0  0  0  0  0  0  0  0  0  0
  1  2  1  0
  2  3  2  0
  3  4  1  0
  4  5  1  0
  5  6  1  0
  6  7  1  0
  7  8  1  0
  8  9  2  0
  8 10  1  0
 10 11  2  0
 11 12  1  0
 12 13  1  0
 13 14  1  0
 13 15  1  0
 15 16  1  0
 16 17  1  0
 17 18  1  0
 19 18  1  0
 14  2  1  0
 19  4  1  0
 12  6  2  0
 19 13  1  0
  7 20  1  0
 15 21  1  0
M  END
> <minimizedAffinity>
-10.08825

> <CNNscore>
0.6657577753

> <CNNaffinity>
6.7132620811

> <CNN_VS>
4.4694066048

> <CNNaffinity_variance>
0.2565217614

$$$$



 21 24  0  0  0  0  0  0  0  0999 V2000
    3.8587   63.8218   65.1108 C   0  0  0  0  0  0  0  0  0  0  0  0
    3.2501   65.1157   64.6555 C   0  0  0  0  0  0  0  0  0  0  0  0
    2.2392   65.7081   65.3182 C   0  0  0  0  0  0  0  0  0  0  0  0
    1.6069   67.0122   64.8702 C   0  0  0  0  0  0  0  0  0  0  0  0
    2.2124   68.1786   65.6781 C   0  0  0  0  0  0  0  0  0  0  0  0
    3.5679   68.6093   65.1668 C   0  0  0  0  0  0  0  0  0  0  0  0
    4.2738   69.4895   65.9590 N   0  0  0  0  0  0  0  0  0  0  0  0
    5.5287   69.9623   65.6704 C   0  0  0  0  0  0  0  0  0  0  0  0
    6.1260   70.7478   66.3971 O   0  0  0  0  0  0  0  0  0  0  0  0
    6.1335   69.4601   64.4163 C   0  0  0  0  0  0  0  0  0  0  0  0
    5.4450   68.6057   63.6475 C   0  0  0  0  0  0  0  0  0  0  0  0
    4.1042   68.1607   64.0096 C   0  0  0  0  0  0  0  0  0  0  0  0
    3.3531   67.1836   63.0789 C   0  0  0  0  0  0  0  0  0  0  0  0
    3.8484   65.7271   63.3994 C   0  0  0  0  0  0  0  0  0  0  0  0
    3.6137   67.4484   61.6396 N   0  0  0  0  0  0  0  0  0  0  0  0
    2.9961   68.6846   61.1537 C   0  0  0  0  0  0  0  0  0  0  0  0
    1.4844   68.6816   61.3466 C   0  0  0  0  0  0  0  0  0  0  0  0
    1.1326   68.4785   62.8143 C   0  0  0  0  0  0  0  0  0  0  0  0
    1.8195   67.2126   63.3537 C   0  0  0  0  0  0  0  0  0  0  0  0
    3.8474   69.8004   66.7901 H   0  0  0  0  0  0  0  0  0  0  0  0
    3.2459   66.6679   61.0956 H   0  0  0  0  0  0  0  0  0  0  0  0
  1  2  1  0
  2  3  2  0
  3  4  1  0
  4  5  1  0
  5  6  1  0
  6  7  1  0
  7  8  1  0
  8  9  2  0
  8 10  1  0
 10 11  2  0
 11 12  1  0
 12 13  1  0
 13 14  1  0
 13 15  1  0
 15 16  1  0
 16 17  1  0
 17 18  1  0
 19 18  1  0
 14  2  1  0
 19  4  1  0
 12  6  2  0
 19 13  1  0
  7 20  1  0
 15 21  1  0
M  END
> <minimizedAffinity>
-8.97329

> <CNNscore>
0.6021634340

> <CNNaffinity>
6.6538677216

> <CNN_VS>
4.0067157745

> <CNNaffinity_variance>
0.1447545886

$$$$



 21 24  0  0  0  0  0  0  0  0999 V2000
    3.9447   70.1359   67.4155 C   0  0  0  0  0  0  0  0  0  0  0  0
    4.3021   69.5205   66.0944 C   0  0  0  0  0  0  0  0  0  0  0  0
    5.5674   69.1936   65.7716 C   0  0  0  0  0  0  0  0  0  0  0  0
    5.9492   68.5768   64.4393 C   0  0  0  0  0  0  0  0  0  0  0  0
    6.0814   67.0485   64.6021 C   0  0  0  0  0  0  0  0  0  0  0  0
    4.7478   66.3372   64.5989 C   0  0  0  0  0  0  0  0  0  0  0  0
    4.7587   65.0063   64.9582 N   0  0  0  0  0  0  0  0  0  0  0  0
    3.6426   64.2131   65.0413 C   0  0  0  0  0  0  0  0  0  0  0  0
    3.6900   63.0311   65.3611 O   0  0  0  0  0  0  0  0  0  0  0  0
    2.3572   64.8747   64.7235 C   0  0  0  0  0  0  0  0  0  0  0  0
    2.3494   66.1679   64.3736 C   0  0  0  0  0  0  0  0  0  0  0  0
    3.5807   66.9448   64.2877 C   0  0  0  0  0  0  0  0  0  0  0  0
    3.5121   68.4293   63.8678 C   0  0  0  0  0  0  0  0  0  0  0  0
    3.1460   69.2789   65.1380 C   0  0  0  0  0  0  0  0  0  0  0  0
    2.4761   68.6850   62.8330 N   0  0  0  0  0  0  0  0  0  0  0  0
    2.8159   68.1325   61.5196 C   0  0  0  0  0  0  0  0  0  0  0  0
    4.1318   68.6892   60.9893 C   0  0  0  0  0  0  0  0  0  0  0  0
    5.2643   68.4100   61.9685 C   0  0  0  0  0  0  0  0  0  0  0  0
    4.8979   68.9360   63.3665 C   0  0  0  0  0  0  0  0  0  0  0  0
    5.6284   64.5964   65.1699 H   0  0  0  0  0  0  0  0  0  0  0  0
    2.3559   69.6935   62.7382 H   0  0  0  0  0  0  0  0  0  0  0  0
  1  2  1  0
  2  3  2  0
  3  4  1  0
  4  5  1  0
  5  6  1  0
  6  7  1  0
  7  8  1  0
  8  9  2  0
  8 10  1  0
 10 11  2  0
 11 12  1  0
 12 13  1  0
 13 14  1  0
 13 15  1  0
 15 16  1  0
 16 17  1  0
 17 18  1  0
 19 18  1  0
 14  2  1  0
 19  4  1  0
 12  6  2  0
 19 13  1  0
  7 20  1  0
 15 21  1  0
M  END
> <minimizedAffinity>
-7.20987

> <CNNscore>
0.5862026811

> <CNNaffinity>
6.4414830208

> <CNN_VS>
3.7760145664

> <CNNaffinity_variance>
0.4184370935

$$$$



 21 24  0  0  0  0  0  0  0  0999 V2000
    4.2496   63.3121   63.9411 C   0  0  0  0  0  0  0  0  0  0  0  0
    4.2672   64.7686   64.3019 C   0  0  0  0  0  0  0  0  0  0  0  0
    5.4125   65.4445   64.5106 C   0  0  0  0  0  0  0  0  0  0  0  0
    5.4505   66.9148   64.8822 C   0  0  0  0  0  0  0  0  0  0  0  0
    5.7213   67.7554   63.6173 C   0  0  0  0  0  0  0  0  0  0  0  0
    4.4877   67.9569   62.7675 C   0  0  0  0  0  0  0  0  0  0  0  0
    4.6837   68.5035   61.5172 N   0  0  0  0  0  0  0  0  0  0  0  0
    3.6879   68.7284   60.6009 C   0  0  0  0  0  0  0  0  0  0  0  0
    3.8983   69.2200   59.4983 O   0  0  0  0  0  0  0  0  0  0  0  0
    2.3247   68.3340   61.0216 C   0  0  0  0  0  0  0  0  0  0  0  0
    2.1366   67.8041   62.2376 C   0  0  0  0  0  0  0  0  0  0  0  0
    3.2433   67.6120   63.1679 C   0  0  0  0  0  0  0  0  0  0  0  0
    2.9653   67.0070   64.5614 C   0  0  0  0  0  0  0  0  0  0  0  0
    2.9101   65.4436   64.4120 C   0  0  0  0  0  0  0  0  0  0  0  0
    1.6693   67.4572   65.1336 N   0  0  0  0  0  0  0  0  0  0  0  0
    1.6682   68.8658   65.5355 C   0  0  0  0  0  0  0  0  0  0  0  0
    2.7473   69.1655   66.5690 C   0  0  0  0  0  0  0  0  0  0  0  0
    4.1219   68.7896   66.0317 C   0  0  0  0  0  0  0  0  0  0  0  0
    4.1227   67.3277   65.5543 C   0  0  0  0  0  0  0  0  0  0  0  0
    5.6027   68.7496   61.2641 H   0  0  0  0  0  0  0  0  0  0  0  0
    1.4626   66.8870   65.9536 H   0  0  0  0  0  0  0  0  0  0  0  0
  1  2  1  0
  2  3  2  0
  3  4  1  0
  4  5  1  0
  5  6  1  0
  6  7  1  0
  7  8  1  0
  8  9  2  0
  8 10  1  0
 10 11  2  0
 11 12  1  0
 12 13  1  0
 13 14  1  0
 13 15  1  0
 15 16  1  0
 16 17  1  0
 17 18  1  0
 19 18  1  0
 14  2  1  0
 19  4  1  0
 12  6  2  0
 19 13  1  0
  7 20  1  0
 15 21  1  0
M  END
> <minimizedAffinity>
-7.90794

> <CNNscore>
0.5749754906

> <CNNaffinity>
6.6989436150

> <CNN_VS>
3.8517284393

> <CNNaffinity_variance>
0.3782829344

$$$$



 21 24  0  0  0  0  0  0  0  0999 V2000
    6.2274   67.5551   61.8799 C   0  0  0  0  0  0  0  0  0  0  0  0
    5.2388   67.5799   63.0086 C   0  0  0  0  0  0  0  0  0  0  0  0
    5.1990   68.5801   63.9086 C   0  0  0  0  0  0  0  0  0  0  0  0
    4.2117   68.6197   65.0597 C   0  0  0  0  0  0  0  0  0  0  0  0
    3.0219   69.5262   64.6824 C   0  0  0  0  0  0  0  0  0  0  0  0
    2.0172   68.8386   63.7866 C   0  0  0  0  0  0  0  0  0  0  0  0
    1.0440   69.6377   63.2254 N   0  0  0  0  0  0  0  0  0  0  0  0
    0.0720   69.1933   62.3656 C   0  0  0  0  0  0  0  0  0  0  0  0
   -0.7807   69.9324   61.8877 O   0  0  0  0  0  0  0  0  0  0  0  0
    0.1131   67.7506   62.0373 C   0  0  0  0  0  0  0  0  0  0  0  0
    1.0591   66.9759   62.5849 C   0  0  0  0  0  0  0  0  0  0  0  0
    2.0505   67.5160   63.5082 C   0  0  0  0  0  0  0  0  0  0  0  0
    3.1108   66.5731   64.1179 C   0  0  0  0  0  0  0  0  0  0  0  0
    4.2739   66.4076   63.0743 C   0  0  0  0  0  0  0  0  0  0  0  0
    2.5707   65.2212   64.4182 N   0  0  0  0  0  0  0  0  0  0  0  0
    1.6338   65.2052   65.5441 C   0  0  0  0  0  0  0  0  0  0  0  0
    2.2707   65.7324   66.8243 C   0  0  0  0  0  0  0  0  0  0  0  0
    2.7956   67.1470   66.6176 C   0  0  0  0  0  0  0  0  0  0  0  0
    3.7387   67.1903   65.4037 C   0  0  0  0  0  0  0  0  0  0  0  0
    1.0469   70.5943   63.4580 H   0  0  0  0  0  0  0  0  0  0  0  0
    3.3515   64.6029   64.6387 H   0  0  0  0  0  0  0  0  0  0  0  0
  1  2  1  0
  2  3  2  0
  3  4  1  0
  4  5  1  0
  5  6  1  0
  6  7  1  0
  7  8  1  0
  8  9  2  0
  8 10  1  0
 10 11  2  0
 11 12  1  0
 12 13  1  0
 13 14  1  0
 13 15  1  0
 15 16  1  0
 16 17  1  0
 17 18  1  0
 19 18  1  0
 14  2  1  0
 19  4  1  0
 12  6  2  0
 19 13  1  0
  7 20  1  0
 15 21  1  0
M  END
> <minimizedAffinity>
3.23104

> <CNNscore>
0.4987402260

> <CNNaffinity>
6.1492710114

> <CNN_VS>
3.0668888092

> <CNNaffinity_variance>
0.5790447593

$$$$
