


 32 35  0  0  0  0  0  0  0  0999 V2000
   18.6687   17.2013   17.1894 C   0  0  0  0  0  0  0  0  0  0  0  0
   17.4619   16.8370   17.5424 N   0  0  0  0  0  0  0  0  0  0  0  0
   17.4468   16.8695   18.9207 C   0  0  0  0  0  0  0  0  0  0  0  0
   16.3937   16.5590   19.8120 C   0  0  0  0  0  0  0  0  0  0  0  0
   16.6548   16.6649   21.2007 C   0  0  0  0  0  0  0  0  0  0  0  0
   15.6389   16.3300   22.1234 N   0  0  0  0  0  0  0  0  0  0  0  0
   15.8678   16.4630   23.3870 C   0  0  0  0  0  0  0  0  0  0  0  0
   14.9037   16.1680   24.2927 N   0  0  0  0  0  0  0  0  0  0  0  0
   17.0547   16.9026   23.8818 N   0  0  0  0  0  0  0  0  0  0  0  0
   18.1349   17.1991   23.0944 C   0  0  0  0  0  0  0  0  0  0  0  0
   19.2160   17.5268   23.5716 O   0  0  0  0  0  0  0  0  0  0  0  0
   17.9192   17.0903   21.6402 C   0  0  0  0  0  0  0  0  0  0  0  0
   18.9667   17.4096   20.7647 C   0  0  0  0  0  0  0  0  0  0  0  0
   18.6824   17.2770   19.4094 C   0  0  0  0  0  0  0  0  0  0  0  0
   19.4352   17.4959   18.2844 N   0  0  0  0  0  0  0  0  0  0  0  0
   14.0247   15.8454   23.9885 H   0  0  0  0  0  0  0  0  0  0  0  0
   15.0823   16.2764   25.2548 H   0  0  0  0  0  0  0  0  0  0  0  0
   17.1422   17.0137   24.8561 H   0  0  0  0  0  0  0  0  0  0  0  0
   20.3677   17.8110   18.2672 H   0  0  0  0  0  0  0  0  0  0  0  0
   18.3031   17.9446   14.9084 C   0  0  0  0  0  0  0  0  0  0  0  0
   19.1286   17.3281   15.9273 N   0  0  0  0  0  0  0  0  0  0  0  0
   20.0282   17.0006   15.6978 H   0  0  0  0  0  0  0  0  0  0  0  0
   15.0356   16.1504   19.2913 C   0  0  0  0  0  0  0  0  0  0  0  0
   15.0016   14.7103   18.7457 C   0  0  0  0  0  0  0  0  0  0  0  0
   14.2937   14.5287   17.4726 N   0  0  0  0  0  0  0  0  0  0  0  0
   14.0356   13.5456   17.3874 H   0  0  0  0  0  0  0  0  0  0  0  0
   13.0812   15.3341   17.3417 C   0  0  0  0  0  0  0  0  0  0  0  0
   11.8487   14.6535   17.9472 C   0  0  0  0  0  0  0  0  0  0  0  0
   10.8112   15.6082   18.5339 C   0  0  0  0  0  0  0  0  0  0  0  0
    9.5418   14.7677   18.6290 C   0  0  0  0  0  0  0  0  0  0  0  0
    9.6823   13.6660   17.5789 C   0  0  0  0  0  0  0  0  0  0  0  0
   11.0287   13.8974   16.9019 C   0  0  0  0  0  0  0  0  0  0  0  0
 20 21  1  0
 21  1  1  0
  1  2  2  0
  2  3  1  0
  3  4  2  0
  4 23  1  0
 23 24  1  0
 24 25  1  0
 25 27  1  0
 27 28  1  0
 28 29  1  0
 29 30  1  0
 30 31  1  0
 31 32  1  0
  4  5  1  0
  5  6  1  0
  6  7  2  0
  7  8  1  0
  7  9  1  0
  9 10  1  0
 10 11  2  0
 10 12  1  0
 12 13  1  0
 13 14  2  0
 14 15  1  0
 15  1  1  0
 14  3  1  0
 32 28  1  0
 12  5  2  0
 21 22  1  0
 25 26  1  0
  8 16  1  0
  8 17  1  0
  9 18  1  0
 15 19  1  0
M  END
> <minimizedAffinity>
-10.61640

> <CNNscore>
0.9980888963

> <CNNaffinity>
8.0053358078

> <CNN_VS>
7.9900369644

> <CNNaffinity_variance>
0.3566838801

$$$$



 32 35  0  0  0  0  0  0  0  0999 V2000
   18.7309   17.2411   17.1967 C   0  0  0  0  0  0  0  0  0  0  0  0
   17.5312   16.8492   17.5447 N   0  0  0  0  0  0  0  0  0  0  0  0
   17.5097   16.8812   18.9229 C   0  0  0  0  0  0  0  0  0  0  0  0
   16.4603   16.5468   19.8099 C   0  0  0  0  0  0  0  0  0  0  0  0
   16.7132   16.6585   21.1996 C   0  0  0  0  0  0  0  0  0  0  0  0
   15.7014   16.3004   22.1181 N   0  0  0  0  0  0  0  0  0  0  0  0
   15.9220   16.4385   23.3826 C   0  0  0  0  0  0  0  0  0  0  0  0
   14.9612   16.1215   24.2844 N   0  0  0  0  0  0  0  0  0  0  0  0
   17.0965   16.9051   23.8823 N   0  0  0  0  0  0  0  0  0  0  0  0
   18.1729   17.2261   23.0994 C   0  0  0  0  0  0  0  0  0  0  0  0
   19.2443   17.5785   23.5810 O   0  0  0  0  0  0  0  0  0  0  0  0
   17.9658   17.1126   21.6443 C   0  0  0  0  0  0  0  0  0  0  0  0
   19.0092   17.4558   20.7731 C   0  0  0  0  0  0  0  0  0  0  0  0
   18.7337   17.3169   19.4167 C   0  0  0  0  0  0  0  0  0  0  0  0
   19.4859   17.5529   18.2948 N   0  0  0  0  0  0  0  0  0  0  0  0
   14.0910   15.7789   23.9766 H   0  0  0  0  0  0  0  0  0  0  0  0
   15.1333   16.2338   25.2472 H   0  0  0  0  0  0  0  0  0  0  0  0
   17.1775   17.0180   24.8570 H   0  0  0  0  0  0  0  0  0  0  0  0
   20.4110   17.8893   18.2814 H   0  0  0  0  0  0  0  0  0  0  0  0
   18.3233   17.8788   14.8909 C   0  0  0  0  0  0  0  0  0  0  0  0
   19.1930   17.3784   15.9365 N   0  0  0  0  0  0  0  0  0  0  0  0
   20.1242   17.1378   15.7265 H   0  0  0  0  0  0  0  0  0  0  0  0
   15.1140   16.1073   19.2836 C   0  0  0  0  0  0  0  0  0  0  0  0
   15.1828   14.8249   18.4330 C   0  0  0  0  0  0  0  0  0  0  0  0
   14.1992   13.7873   18.7655 N   0  0  0  0  0  0  0  0  0  0  0  0
   14.2537   13.6041   19.7674 H   0  0  0  0  0  0  0  0  0  0  0  0
   12.8198   14.1433   18.4389 C   0  0  0  0  0  0  0  0  0  0  0  0
   12.7144   15.0242   17.1892 C   0  0  0  0  0  0  0  0  0  0  0  0
   11.9236   14.4107   16.0359 C   0  0  0  0  0  0  0  0  0  0  0  0
   11.5728   15.6009   15.1487 C   0  0  0  0  0  0  0  0  0  0  0  0
   11.5852   16.8280   16.0600 C   0  0  0  0  0  0  0  0  0  0  0  0
   11.9416   16.3167   17.4515 C   0  0  0  0  0  0  0  0  0  0  0  0
 20 21  1  0
 21  1  1  0
  1  2  2  0
  2  3  1  0
  3  4  2  0
  4 23  1  0
 23 24  1  0
 24 25  1  0
 25 27  1  0
 27 28  1  0
 28 29  1  0
 29 30  1  0
 30 31  1  0
 31 32  1  0
  4  5  1  0
  5  6  1  0
  6  7  2  0
  7  8  1  0
  7  9  1  0
  9 10  1  0
 10 11  2  0
 10 12  1  0
 12 13  1  0
 13 14  2  0
 14 15  1  0
 15  1  1  0
 14  3  1  0
 32 28  1  0
 12  5  2  0
 21 22  1  0
 25 26  1  0
  8 16  1  0
  8 17  1  0
  9 18  1  0
 15 19  1  0
M  END
> <minimizedAffinity>
-10.28270

> <CNNscore>
0.9962809086

> <CNNaffinity>
7.8976368904

> <CNN_VS>
7.8682646751

> <CNNaffinity_variance>
0.4168942273

$$$$



 32 35  0  0  0  0  0  0  0  0999 V2000
   15.4099   16.5005   23.4703 C   0  0  0  0  0  0  0  0  0  0  0  0
   15.0464   16.2304   22.2420 N   0  0  0  0  0  0  0  0  0  0  0  0
   16.1258   16.5583   21.4492 C   0  0  0  0  0  0  0  0  0  0  0  0
   16.2646   16.4699   20.0447 C   0  0  0  0  0  0  0  0  0  0  0  0
   17.4927   16.8915   19.4774 C   0  0  0  0  0  0  0  0  0  0  0  0
   17.6573   16.8510   18.0749 N   0  0  0  0  0  0  0  0  0  0  0  0
   18.7902   17.2007   17.5640 C   0  0  0  0  0  0  0  0  0  0  0  0
   18.9813   17.1519   16.2232 N   0  0  0  0  0  0  0  0  0  0  0  0
   19.8417   17.6225   18.3145 N   0  0  0  0  0  0  0  0  0  0  0  0
   19.7865   17.7642   19.6752 C   0  0  0  0  0  0  0  0  0  0  0  0
   20.7278   18.2134   20.3202 O   0  0  0  0  0  0  0  0  0  0  0  0
   18.5231   17.3522   20.3134 C   0  0  0  0  0  0  0  0  0  0  0  0
   18.3989   17.4346   21.7074 C   0  0  0  0  0  0  0  0  0  0  0  0
   17.1745   17.0305   22.2295 C   0  0  0  0  0  0  0  0  0  0  0  0
   16.6955   16.9680   23.5128 N   0  0  0  0  0  0  0  0  0  0  0  0
   18.2523   16.8535   15.6326 H   0  0  0  0  0  0  0  0  0  0  0  0
   19.8491   17.4149   15.8398 H   0  0  0  0  0  0  0  0  0  0  0  0
   20.6863   17.8372   17.8563 H   0  0  0  0  0  0  0  0  0  0  0  0
   17.1916   17.2170   24.3259 H   0  0  0  0  0  0  0  0  0  0  0  0
   13.4899   17.1275   24.8156 C   0  0  0  0  0  0  0  0  0  0  0  0
   14.6682   16.3168   24.5823 N   0  0  0  0  0  0  0  0  0  0  0  0
   14.9284   15.6297   25.2376 H   0  0  0  0  0  0  0  0  0  0  0  0
   15.1447   15.9237   19.1902 C   0  0  0  0  0  0  0  0  0  0  0  0
   15.2943   14.4226   18.8785 C   0  0  0  0  0  0  0  0  0  0  0  0
   14.0791   13.7459   18.4095 N   0  0  0  0  0  0  0  0  0  0  0  0
   13.6441   13.2808   19.2062 H   0  0  0  0  0  0  0  0  0  0  0  0
   13.0923   14.6384   17.8048 C   0  0  0  0  0  0  0  0  0  0  0  0
   11.6523   14.2726   18.1810 C   0  0  0  0  0  0  0  0  0  0  0  0
   10.7976   15.4427   18.6631 C   0  0  0  0  0  0  0  0  0  0  0  0
    9.3639   14.9416   18.5206 C   0  0  0  0  0  0  0  0  0  0  0  0
    9.3972   13.8611   17.4400 C   0  0  0  0  0  0  0  0  0  0  0  0
   10.8488   13.7651   16.9838 C   0  0  0  0  0  0  0  0  0  0  0  0
 20 21  1  0
 21  1  1  0
  1  2  2  0
  2  3  1  0
  3  4  2  0
  4 23  1  0
 23 24  1  0
 24 25  1  0
 25 27  1  0
 27 28  1  0
 28 29  1  0
 29 30  1  0
 30 31  1  0
 31 32  1  0
  4  5  1  0
  5  6  1  0
  6  7  2  0
  7  8  1  0
  7  9  1  0
  9 10  1  0
 10 11  2  0
 10 12  1  0
 12 13  1  0
 13 14  2  0
 14 15  1  0
 15  1  1  0
 14  3  1  0
 32 28  1  0
 12  5  2  0
 21 22  1  0
 25 26  1  0
  8 16  1  0
  8 17  1  0
  9 18  1  0
 15 19  1  0
M  END
> <minimizedAffinity>
-7.17498

> <CNNscore>
0.9470793605

> <CNNaffinity>
7.5376906395

> <CNN_VS>
7.1387910843

> <CNNaffinity_variance>
0.2163120508

$$$$



 32 35  0  0  0  0  0  0  0  0999 V2000
   18.0017   17.5608   14.3931 C   0  0  0  0  0  0  0  0  0  0  0  0
   16.8563   17.2851   14.9638 N   0  0  0  0  0  0  0  0  0  0  0  0
   17.1255   17.1673   16.3109 C   0  0  0  0  0  0  0  0  0  0  0  0
   16.2454   16.8699   17.3771 C   0  0  0  0  0  0  0  0  0  0  0  0
   16.7940   16.7954   18.6814 C   0  0  0  0  0  0  0  0  0  0  0  0
   15.9533   16.4666   19.7681 N   0  0  0  0  0  0  0  0  0  0  0  0
   16.4486   16.4358   20.9599 C   0  0  0  0  0  0  0  0  0  0  0  0
   15.6597   16.1431   22.0223 N   0  0  0  0  0  0  0  0  0  0  0  0
   17.7561   16.6949   21.2248 N   0  0  0  0  0  0  0  0  0  0  0  0
   18.6821   16.9641   20.2527 C   0  0  0  0  0  0  0  0  0  0  0  0
   19.8694   17.1253   20.5135 O   0  0  0  0  0  0  0  0  0  0  0  0
   18.1638   17.0385   18.8747 C   0  0  0  0  0  0  0  0  0  0  0  0
   19.0428   17.3434   17.8258 C   0  0  0  0  0  0  0  0  0  0  0  0
   18.4751   17.3903   16.5567 C   0  0  0  0  0  0  0  0  0  0  0  0
   19.0048   17.6534   15.3196 N   0  0  0  0  0  0  0  0  0  0  0  0
   14.7045   15.9473   21.8870 H   0  0  0  0  0  0  0  0  0  0  0  0
   16.0420   16.1262   22.9294 H   0  0  0  0  0  0  0  0  0  0  0  0
   18.0527   16.6886   22.1636 H   0  0  0  0  0  0  0  0  0  0  0  0
   19.9460   17.8717   15.1301 H   0  0  0  0  0  0  0  0  0  0  0  0
   19.4575   18.3508   12.6195 C   0  0  0  0  0  0  0  0  0  0  0  0
   18.2078   17.7780   13.0775 N   0  0  0  0  0  0  0  0  0  0  0  0
   17.5066   17.5464   12.4264 H   0  0  0  0  0  0  0  0  0  0  0  0
   14.7701   16.6619   17.1263 C   0  0  0  0  0  0  0  0  0  0  0  0
   14.2665   15.2769   17.5745 C   0  0  0  0  0  0  0  0  0  0  0  0
   13.2972   15.2783   18.6768 N   0  0  0  0  0  0  0  0  0  0  0  0
   13.7830   15.5555   19.5298 H   0  0  0  0  0  0  0  0  0  0  0  0
   12.1665   16.1829   18.4787 C   0  0  0  0  0  0  0  0  0  0  0  0
   10.8443   15.4403   18.2572 C   0  0  0  0  0  0  0  0  0  0  0  0
   10.2332   15.6168   16.8689 C   0  0  0  0  0  0  0  0  0  0  0  0
    9.2414   14.4642   16.7479 C   0  0  0  0  0  0  0  0  0  0  0  0
    9.7397   13.3741   17.6964 C   0  0  0  0  0  0  0  0  0  0  0  0
   11.0077   13.9228   18.3412 C   0  0  0  0  0  0  0  0  0  0  0  0
 20 21  1  0
 21  1  1  0
  1  2  2  0
  2  3  1  0
  3  4  2  0
  4 23  1  0
 23 24  1  0
 24 25  1  0
 25 27  1  0
 27 28  1  0
 28 29  1  0
 29 30  1  0
 30 31  1  0
 31 32  1  0
  4  5  1  0
  5  6  1  0
  6  7  2  0
  7  8  1  0
  7  9  1  0
  9 10  1  0
 10 11  2  0
 10 12  1  0
 12 13  1  0
 13 14  2  0
 14 15  1  0
 15  1  1  0
 14  3  1  0
 32 28  1  0
 12  5  2  0
 21 22  1  0
 25 26  1  0
  8 16  1  0
  8 17  1  0
  9 18  1  0
 15 19  1  0
M  END
> <minimizedAffinity>
-8.65829

> <CNNscore>
0.8570711613

> <CNNaffinity>
7.0936226845

> <CNN_VS>
6.0797395706

> <CNNaffinity_variance>
0.1231714487

$$$$



 32 35  0  0  0  0  0  0  0  0999 V2000
   18.6406   17.0416   20.8051 C   0  0  0  0  0  0  0  0  0  0  0  0
   17.4511   16.6457   20.4281 N   0  0  0  0  0  0  0  0  0  0  0  0
   17.4163   16.8090   19.0595 C   0  0  0  0  0  0  0  0  0  0  0  0
   16.3648   16.5414   18.1525 C   0  0  0  0  0  0  0  0  0  0  0  0
   16.5932   16.8161   16.7814 C   0  0  0  0  0  0  0  0  0  0  0  0
   15.5553   16.5947   15.8489 N   0  0  0  0  0  0  0  0  0  0  0  0
   15.7786   16.8108   14.5958 C   0  0  0  0  0  0  0  0  0  0  0  0
   14.8067   16.5871   13.6782 N   0  0  0  0  0  0  0  0  0  0  0  0
   16.9719   17.2573   14.1230 N   0  0  0  0  0  0  0  0  0  0  0  0
   18.0332   17.5672   14.9308 C   0  0  0  0  0  0  0  0  0  0  0  0
   19.0750   18.0346   14.4836 O   0  0  0  0  0  0  0  0  0  0  0  0
   17.8410   17.3128   16.3700 C   0  0  0  0  0  0  0  0  0  0  0  0
   18.8929   17.5723   17.2598 C   0  0  0  0  0  0  0  0  0  0  0  0
   18.6288   17.3092   18.6001 C   0  0  0  0  0  0  0  0  0  0  0  0
   19.3937   17.4329   19.7314 N   0  0  0  0  0  0  0  0  0  0  0  0
   13.9228   16.2631   13.9663 H   0  0  0  0  0  0  0  0  0  0  0  0
   14.9845   16.7487   12.7235 H   0  0  0  0  0  0  0  0  0  0  0  0
   17.0787   17.3633   13.1501 H   0  0  0  0  0  0  0  0  0  0  0  0
   20.3254   17.7491   19.7655 H   0  0  0  0  0  0  0  0  0  0  0  0
   18.2118   17.0411   23.1937 C   0  0  0  0  0  0  0  0  0  0  0  0
   19.1215   17.0400   22.0658 N   0  0  0  0  0  0  0  0  0  0  0  0
   20.0939   17.0381   22.2199 H   0  0  0  0  0  0  0  0  0  0  0  0
   15.0554   15.9631   18.6360 C   0  0  0  0  0  0  0  0  0  0  0  0
   15.1258   14.4501   18.9168 C   0  0  0  0  0  0  0  0  0  0  0  0
   13.9832   13.6609   18.4409 N   0  0  0  0  0  0  0  0  0  0  0  0
   13.5080   13.2647   19.2519 H   0  0  0  0  0  0  0  0  0  0  0  0
   13.0080   14.4260   17.6666 C   0  0  0  0  0  0  0  0  0  0  0  0
   11.5645   14.1738   18.1156 C   0  0  0  0  0  0  0  0  0  0  0  0
   10.8308   15.4058   18.6408 C   0  0  0  0  0  0  0  0  0  0  0  0
    9.3566   15.0204   18.5714 C   0  0  0  0  0  0  0  0  0  0  0  0
    9.2492   13.9452   17.4904 C   0  0  0  0  0  0  0  0  0  0  0  0
   10.6636   13.7364   16.9607 C   0  0  0  0  0  0  0  0  0  0  0  0
 20 21  1  0
 21  1  1  0
  1  2  2  0
  2  3  1  0
  3  4  2  0
  4 23  1  0
 23 24  1  0
 24 25  1  0
 25 27  1  0
 27 28  1  0
 28 29  1  0
 29 30  1  0
 30 31  1  0
 31 32  1  0
  4  5  1  0
  5  6  1  0
  6  7  2  0
  7  8  1  0
  7  9  1  0
  9 10  1  0
 10 11  2  0
 10 12  1  0
 12 13  1  0
 13 14  2  0
 14 15  1  0
 15  1  1  0
 14  3  1  0
 32 28  1  0
 12  5  2  0
 21 22  1  0
 25 26  1  0
  8 16  1  0
  8 17  1  0
  9 18  1  0
 15 19  1  0
M  END
> <minimizedAffinity>
-8.61827

> <CNNscore>
0.1569979489

> <CNNaffinity>
5.1326651573

> <CNN_VS>
0.8058179021

> <CNNaffinity_variance>
1.4680843353

$$$$



 32 35  0  0  0  0  0  0  0  0999 V2000
   17.4444   16.5793   21.0810 C   0  0  0  0  0  0  0  0  0  0  0  0
   17.9765   16.8394   19.9136 N   0  0  0  0  0  0  0  0  0  0  0  0
   16.9639   16.6727   18.9928 C   0  0  0  0  0  0  0  0  0  0  0  0
   16.9991   16.8205   17.5868 C   0  0  0  0  0  0  0  0  0  0  0  0
   15.8027   16.5725   16.8693 C   0  0  0  0  0  0  0  0  0  0  0  0
   15.8065   16.6759   15.4604 N   0  0  0  0  0  0  0  0  0  0  0  0
   14.7061   16.4857   14.8126 C   0  0  0  0  0  0  0  0  0  0  0  0
   14.6776   16.5988   13.4624 N   0  0  0  0  0  0  0  0  0  0  0  0
   13.5322   16.1752   15.4230 N   0  0  0  0  0  0  0  0  0  0  0  0
   13.4132   15.9863   16.7739 C   0  0  0  0  0  0  0  0  0  0  0  0
   12.3569   15.6382   17.2904 O   0  0  0  0  0  0  0  0  0  0  0  0
   14.6351   16.2182   17.5652 C   0  0  0  0  0  0  0  0  0  0  0  0
   14.5874   16.0785   18.9594 C   0  0  0  0  0  0  0  0  0  0  0  0
   15.7834   16.3110   19.6308 C   0  0  0  0  0  0  0  0  0  0  0  0
   16.1156   16.2742   20.9607 N   0  0  0  0  0  0  0  0  0  0  0  0
   15.5002   16.8220   12.9697 H   0  0  0  0  0  0  0  0  0  0  0  0
   13.8344   16.4576   12.9742 H   0  0  0  0  0  0  0  0  0  0  0  0
   12.7263   16.0813   14.8653 H   0  0  0  0  0  0  0  0  0  0  0  0
   15.5030   16.0642   21.7022 H   0  0  0  0  0  0  0  0  0  0  0  0
   17.5179   17.4331   23.3515 C   0  0  0  0  0  0  0  0  0  0  0  0
   18.0700   16.6352   22.2752 N   0  0  0  0  0  0  0  0  0  0  0  0
   18.9045   16.1321   22.4158 H   0  0  0  0  0  0  0  0  0  0  0  0
   18.2673   17.2490   16.8863 C   0  0  0  0  0  0  0  0  0  0  0  0
   18.0199   17.8237   15.4786 C   0  0  0  0  0  0  0  0  0  0  0  0
   19.1828   17.8361   14.5830 N   0  0  0  0  0  0  0  0  0  0  0  0
   19.5366   16.8827   14.5048 H   0  0  0  0  0  0  0  0  0  0  0  0
   18.8971   18.3309   13.2377 C   0  0  0  0  0  0  0  0  0  0  0  0
   17.9178   19.5097   13.2347 C   0  0  0  0  0  0  0  0  0  0  0  0
   18.5615   20.8800   13.4350 C   0  0  0  0  0  0  0  0  0  0  0  0
   17.5073   21.8642   12.9381 C   0  0  0  0  0  0  0  0  0  0  0  0
   16.6421   21.0926   11.9419 C   0  0  0  0  0  0  0  0  0  0  0  0
   17.2182   19.6820   11.8866 C   0  0  0  0  0  0  0  0  0  0  0  0
 20 21  1  0
 21  1  1  0
  1  2  2  0
  2  3  1  0
  3  4  2  0
  4 23  1  0
 23 24  1  0
 24 25  1  0
 25 27  1  0
 27 28  1  0
 28 29  1  0
 29 30  1  0
 30 31  1  0
 31 32  1  0
  4  5  1  0
  5  6  1  0
  6  7  2  0
  7  8  1  0
  7  9  1  0
  9 10  1  0
 10 11  2  0
 10 12  1  0
 12 13  1  0
 13 14  2  0
 14 15  1  0
 15  1  1  0
 14  3  1  0
 32 28  1  0
 12  5  2  0
 21 22  1  0
 25 26  1  0
  8 16  1  0
  8 17  1  0
  9 18  1  0
 15 19  1  0
M  END
> <minimizedAffinity>
-7.08290

> <CNNscore>
0.1521714777

> <CNNaffinity>
5.3744120598

> <CNN_VS>
0.8178322315

> <CNNaffinity_variance>
0.6101993918

$$$$



 32 35  0  0  0  0  0  0  0  0999 V2000
   17.9879   16.6792   20.9446 C   0  0  0  0  0  0  0  0  0  0  0  0
   18.4551   16.9422   19.7502 N   0  0  0  0  0  0  0  0  0  0  0  0
   17.3939   16.7757   18.8859 C   0  0  0  0  0  0  0  0  0  0  0  0
   17.3521   16.9261   17.4804 C   0  0  0  0  0  0  0  0  0  0  0  0
   16.1185   16.6777   16.8289 C   0  0  0  0  0  0  0  0  0  0  0  0
   16.0452   16.7837   15.4221 N   0  0  0  0  0  0  0  0  0  0  0  0
   14.9113   16.5931   14.8350 C   0  0  0  0  0  0  0  0  0  0  0  0
   14.8089   16.7086   13.4886 N   0  0  0  0  0  0  0  0  0  0  0  0
   13.7729   16.2799   15.5080 N   0  0  0  0  0  0  0  0  0  0  0  0
   13.7282   16.0884   16.8630 C   0  0  0  0  0  0  0  0  0  0  0  0
   12.7021   15.7378   17.4359 O   0  0  0  0  0  0  0  0  0  0  0  0
   14.9912   16.3206   17.5868 C   0  0  0  0  0  0  0  0  0  0  0  0
   15.0199   16.1782   18.9813 C   0  0  0  0  0  0  0  0  0  0  0  0
   16.2505   16.4112   19.5868 C   0  0  0  0  0  0  0  0  0  0  0  0
   16.6550   16.3724   20.8964 N   0  0  0  0  0  0  0  0  0  0  0  0
   15.6030   16.9339   12.9521 H   0  0  0  0  0  0  0  0  0  0  0  0
   13.9405   16.5672   13.0470 H   0  0  0  0  0  0  0  0  0  0  0  0
   12.9379   16.1859   14.9951 H   0  0  0  0  0  0  0  0  0  0  0  0
   16.0841   16.1602   21.6699 H   0  0  0  0  0  0  0  0  0  0  0  0
   17.9835   16.9513   23.3560 C   0  0  0  0  0  0  0  0  0  0  0  0
   18.6778   16.7338   22.1029 N   0  0  0  0  0  0  0  0  0  0  0  0
   19.6563   16.6255   22.0966 H   0  0  0  0  0  0  0  0  0  0  0  0
   18.5795   17.3577   16.7123 C   0  0  0  0  0  0  0  0  0  0  0  0
   18.2482   18.1038   15.4060 C   0  0  0  0  0  0  0  0  0  0  0  0
   19.1155   17.7990   14.2617 N   0  0  0  0  0  0  0  0  0  0  0  0
   19.0312   16.8043   14.0523 H   0  0  0  0  0  0  0  0  0  0  0  0
   18.7948   18.5512   13.0503 C   0  0  0  0  0  0  0  0  0  0  0  0
   18.5931   17.6491   11.8278 C   0  0  0  0  0  0  0  0  0  0  0  0
   17.6293   18.1969   10.7775 C   0  0  0  0  0  0  0  0  0  0  0  0
   17.9528   17.3964    9.5200 C   0  0  0  0  0  0  0  0  0  0  0  0
   19.3995   16.9283    9.6751 C   0  0  0  0  0  0  0  0  0  0  0  0
   19.8770   17.4707   11.0177 C   0  0  0  0  0  0  0  0  0  0  0  0
 20 21  1  0
 21  1  1  0
  1  2  2  0
  2  3  1  0
  3  4  2  0
  4 23  1  0
 23 24  1  0
 24 25  1  0
 25 27  1  0
 27 28  1  0
 28 29  1  0
 29 30  1  0
 30 31  1  0
 31 32  1  0
  4  5  1  0
  5  6  1  0
  6  7  2  0
  7  8  1  0
  7  9  1  0
  9 10  1  0
 10 11  2  0
 10 12  1  0
 12 13  1  0
 13 14  2  0
 14 15  1  0
 15  1  1  0
 14  3  1  0
 32 28  1  0
 12  5  2  0
 21 22  1  0
 25 26  1  0
  8 16  1  0
  8 17  1  0
  9 18  1  0
 15 19  1  0
M  END
> <minimizedAffinity>
-7.79203

> <CNNscore>
0.1346423775

> <CNNaffinity>
5.5280823708

> <CNN_VS>
0.7443141341

> <CNNaffinity_variance>
0.6359315515

$$$$



 32 35  0  0  0  0  0  0  0  0999 V2000
   10.7161   18.6618   13.3856 C   0  0  0  0  0  0  0  0  0  0  0  0
   11.8883   18.5104   13.9485 N   0  0  0  0  0  0  0  0  0  0  0  0
   11.7398   17.4840   14.8570 C   0  0  0  0  0  0  0  0  0  0  0  0
   12.6939   16.9224   15.7370 C   0  0  0  0  0  0  0  0  0  0  0  0
   12.2669   15.8712   16.5857 C   0  0  0  0  0  0  0  0  0  0  0  0
   13.1815   15.3076   17.5032 N   0  0  0  0  0  0  0  0  0  0  0  0
   12.7999   14.3253   18.2489 C   0  0  0  0  0  0  0  0  0  0  0  0
   13.6633   13.7532   19.1231 N   0  0  0  0  0  0  0  0  0  0  0  0
   11.5445   13.8068   18.2047 N   0  0  0  0  0  0  0  0  0  0  0  0
   10.5520   14.3054   17.4041 C   0  0  0  0  0  0  0  0  0  0  0  0
    9.4087   13.8630   17.4352 O   0  0  0  0  0  0  0  0  0  0  0  0
   10.9417   15.4116   16.5110 C   0  0  0  0  0  0  0  0  0  0  0  0
    9.9911   15.9550   15.6355 C   0  0  0  0  0  0  0  0  0  0  0  0
   10.4383   16.9974   14.8300 C   0  0  0  0  0  0  0  0  0  0  0  0
    9.8138   17.7558   13.8735 N   0  0  0  0  0  0  0  0  0  0  0  0
   14.5856   14.0899   19.1957 H   0  0  0  0  0  0  0  0  0  0  0  0
   13.3681   13.0009   19.6854 H   0  0  0  0  0  0  0  0  0  0  0  0
   11.3382   13.0332   18.7777 H   0  0  0  0  0  0  0  0  0  0  0  0
    8.8765   17.6641   13.5866 H   0  0  0  0  0  0  0  0  0  0  0  0
    9.2641   20.4304   12.5774 C   0  0  0  0  0  0  0  0  0  0  0  0
   10.4024   19.5480   12.4177 N   0  0  0  0  0  0  0  0  0  0  0  0
   10.9488   19.5952   11.6001 H   0  0  0  0  0  0  0  0  0  0  0  0
   14.1208   17.4187   15.7488 C   0  0  0  0  0  0  0  0  0  0  0  0
   15.1411   16.3273   16.1240 C   0  0  0  0  0  0  0  0  0  0  0  0
   16.2089   16.7429   17.0415 N   0  0  0  0  0  0  0  0  0  0  0  0
   16.0440   17.7143   17.3053 H   0  0  0  0  0  0  0  0  0  0  0  0
   16.2934   15.9443   18.2627 C   0  0  0  0  0  0  0  0  0  0  0  0
   16.8211   16.7438   19.4590 C   0  0  0  0  0  0  0  0  0  0  0  0
   16.4407   16.1800   20.8263 C   0  0  0  0  0  0  0  0  0  0  0  0
   17.4278   16.8340   21.7879 C   0  0  0  0  0  0  0  0  0  0  0  0
   18.6553   17.1987   20.9533 C   0  0  0  0  0  0  0  0  0  0  0  0
   18.3480   16.7455   19.5303 C   0  0  0  0  0  0  0  0  0  0  0  0
 20 21  1  0
 21  1  1  0
  1  2  2  0
  2  3  1  0
  3  4  2  0
  4 23  1  0
 23 24  1  0
 24 25  1  0
 25 27  1  0
 27 28  1  0
 28 29  1  0
 29 30  1  0
 30 31  1  0
 31 32  1  0
  4  5  1  0
  5  6  1  0
  6  7  2  0
  7  8  1  0
  7  9  1  0
  9 10  1  0
 10 11  2  0
 10 12  1  0
 12 13  1  0
 13 14  2  0
 14 15  1  0
 15  1  1  0
 14  3  1  0
 32 28  1  0
 12  5  2  0
 21 22  1  0
 25 26  1  0
  8 16  1  0
  8 17  1  0
  9 18  1  0
 15 19  1  0
M  END
> <minimizedAffinity>
-8.23338

> <CNNscore>
0.1136317402

> <CNNaffinity>
4.8688697815

> <CNN_VS>
0.5532581210

> <CNNaffinity_variance>
1.2140041590

$$$$



 32 35  0  0  0  0  0  0  0  0999 V2000
   12.0406   14.6269   17.4390 C   0  0  0  0  0  0  0  0  0  0  0  0
   12.7597   15.1524   16.4796 N   0  0  0  0  0  0  0  0  0  0  0  0
   13.9422   15.5471   17.0685 C   0  0  0  0  0  0  0  0  0  0  0  0
   15.0655   16.1782   16.4857 C   0  0  0  0  0  0  0  0  0  0  0  0
   16.1576   16.4902   17.3329 C   0  0  0  0  0  0  0  0  0  0  0  0
   17.2838   17.1521   16.7950 N   0  0  0  0  0  0  0  0  0  0  0  0
   18.2924   17.4017   17.5613 C   0  0  0  0  0  0  0  0  0  0  0  0
   19.3934   18.0174   17.0659 N   0  0  0  0  0  0  0  0  0  0  0  0
   18.3220   17.0671   18.8781 N   0  0  0  0  0  0  0  0  0  0  0  0
   17.2704   16.4797   19.5293 C   0  0  0  0  0  0  0  0  0  0  0  0
   17.2979   16.2521   20.7340 O   0  0  0  0  0  0  0  0  0  0  0  0
   16.1021   16.1475   18.6939 C   0  0  0  0  0  0  0  0  0  0  0  0
   14.9973   15.5132   19.2793 C   0  0  0  0  0  0  0  0  0  0  0  0
   13.9356   15.2382   18.4235 C   0  0  0  0  0  0  0  0  0  0  0  0
   12.7189   14.6396   18.6276 N   0  0  0  0  0  0  0  0  0  0  0  0
   19.4251   18.2816   16.1180 H   0  0  0  0  0  0  0  0  0  0  0  0
   20.1615   18.2005   17.6538 H   0  0  0  0  0  0  0  0  0  0  0  0
   19.1413   17.2567   19.3900 H   0  0  0  0  0  0  0  0  0  0  0  0
   12.3896   14.2803   19.4830 H   0  0  0  0  0  0  0  0  0  0  0  0
    9.6342   14.8795   17.6255 C   0  0  0  0  0  0  0  0  0  0  0  0
   10.8088   14.0906   17.3130 N   0  0  0  0  0  0  0  0  0  0  0  0
   10.7078   13.1601   17.0078 H   0  0  0  0  0  0  0  0  0  0  0  0
   15.0987   16.4854   15.0068 C   0  0  0  0  0  0  0  0  0  0  0  0
   14.4690   17.8463   14.6542 C   0  0  0  0  0  0  0  0  0  0  0  0
   13.0028   17.8998   14.6993 N   0  0  0  0  0  0  0  0  0  0  0  0
   12.7198   18.1188   15.6544 H   0  0  0  0  0  0  0  0  0  0  0  0
   12.4123   18.8951   13.8066 C   0  0  0  0  0  0  0  0  0  0  0  0
   12.4345   20.3091   14.3972 C   0  0  0  0  0  0  0  0  0  0  0  0
   11.2549   21.1917   13.9948 C   0  0  0  0  0  0  0  0  0  0  0  0
   11.2544   22.3102   15.0321 C   0  0  0  0  0  0  0  0  0  0  0  0
   11.9422   21.7396   16.2721 C   0  0  0  0  0  0  0  0  0  0  0  0
   12.3222   20.3052   15.9216 C   0  0  0  0  0  0  0  0  0  0  0  0
 20 21  1  0
 21  1  1  0
  1  2  2  0
  2  3  1  0
  3  4  2  0
  4 23  1  0
 23 24  1  0
 24 25  1  0
 25 27  1  0
 27 28  1  0
 28 29  1  0
 29 30  1  0
 30 31  1  0
 31 32  1  0
  4  5  1  0
  5  6  1  0
  6  7  2  0
  7  8  1  0
  7  9  1  0
  9 10  1  0
 10 11  2  0
 10 12  1  0
 12 13  1  0
 13 14  2  0
 14 15  1  0
 15  1  1  0
 14  3  1  0
 32 28  1  0
 12  5  2  0
 21 22  1  0
 25 26  1  0
  8 16  1  0
  8 17  1  0
  9 18  1  0
 15 19  1  0
M  END
> <minimizedAffinity>
-7.59645

> <CNNscore>
0.1066252291

> <CNNaffinity>
4.8308510780

> <CNN_VS>
0.5150905848

> <CNNaffinity_variance>
1.2213335037

$$$$
