


 52 55  0  0  0  0  0  0  0  0999 V2000
   -3.7625   -2.4727   31.6307 N   0  0  0  0  0  0  0  0  0  0  0  0
   -3.6082   -3.1294   30.4332 C   0  0  0  0  0  0  0  0  0  0  0  0
   -4.5484   -3.5913   29.7972 O   0  0  0  0  0  0  0  0  0  0  0  0
   -2.9605   -2.1450   32.0984 H   0  0  0  0  0  0  0  0  0  0  0  0
   -2.2226   -3.2621   29.9271 C   0  0  0  0  0  0  0  0  0  0  0  0
   -1.3658   -4.1697   30.5541 C   0  0  0  0  0  0  0  0  0  0  0  0
   -0.0538   -4.3192   30.0925 C   0  0  0  0  0  0  0  0  0  0  0  0
    0.4068   -3.5427   29.0224 C   0  0  0  0  0  0  0  0  0  0  0  0
   -0.4518   -2.6291   28.4073 C   0  0  0  0  0  0  0  0  0  0  0  0
   -1.7769   -2.5161   28.8317 C   0  0  0  0  0  0  0  0  0  0  0  0
    0.8328   -5.2839   30.7882 C   0  0  0  0  0  0  0  0  0  0  0  0
    1.0027   -6.4020   30.3180 O   0  0  0  0  0  0  0  0  0  0  0  0
    1.4489   -4.8237   31.9300 N   0  0  0  0  0  0  0  0  0  0  0  0
    1.2135   -3.9348   32.2816 H   0  0  0  0  0  0  0  0  0  0  0  0
    2.4427   -5.6283   32.6269 C   0  0  0  0  0  0  0  0  0  0  0  0
    1.7822   -6.8075   33.3473 C   0  0  0  0  0  0  0  0  0  0  0  0
    3.2616   -4.7242   33.5333 C   0  0  0  0  0  0  0  0  0  0  0  0
    4.6638   -4.6655   33.4827 C   0  0  0  0  0  0  0  0  0  0  0  0
    5.3756   -3.8399   34.3573 C   0  0  0  0  0  0  0  0  0  0  0  0
    4.6995   -3.0710   35.3014 C   0  0  0  0  0  0  0  0  0  0  0  0
    3.3096   -3.1327   35.3795 C   0  0  0  0  0  0  0  0  0  0  0  0
    2.5970   -3.9563   34.5053 C   0  0  0  0  0  0  0  0  0  0  0  0
    0.0631   -1.8786   27.2911 N   0  0  0  0  0  0  0  0  0  0  0  0
   -0.9774   -1.2102   26.4682 C   0  0  0  0  0  0  0  0  0  0  0  0
    1.4153   -0.8686   27.6132 S   0  0  0  0  0  0  0  0  0  0  0  0
    2.7705   -1.9087   27.1052 C   0  0  0  0  0  0  0  0  0  0  0  0
    1.3547    0.2480   26.6920 O   0  0  0  0  0  0  0  0  0  0  0  0
    1.5022   -0.6396   29.0403 O   0  0  0  0  0  0  0  0  0  0  0  0
   -5.0837   -2.2410   32.2404 C   0  0  0  0  0  0  0  0  0  0  0  0
   -5.4915   -3.3937   33.2097 C   0  0  0  0  0  0  0  0  0  0  0  0
   -5.1950   -3.0407   34.5756 O   0  0  0  0  0  0  0  0  0  0  0  0
   -4.2356   -2.9484   34.6848 H   0  0  0  0  0  0  0  0  0  0  0  0
   -4.8275   -4.7624   32.9375 C   0  0  0  0  0  0  0  0  0  0  0  0
   -4.7714   -5.6309   34.1156 N   0  0  0  0  0  0  0  0  0  0  0  0
   -5.1901   -5.1382   34.9045 H   0  0  0  0  0  0  0  0  0  0  0  0
   -3.4024   -6.0107   34.4734 C   0  0  0  0  0  0  0  0  0  0  0  0
   -2.8297   -8.1329   31.3499 C   0  0  0  0  0  0  0  0  0  0  0  0
   -1.5067   -8.5362   31.5447 C   0  0  0  0  0  0  0  0  0  0  0  0
   -0.7985   -8.1313   32.6759 C   0  0  0  0  0  0  0  0  0  0  0  0
   -1.4130   -7.3166   33.6242 C   0  0  0  0  0  0  0  0  0  0  0  0
   -2.7420   -6.9036   33.4495 C   0  0  0  0  0  0  0  0  0  0  0  0
   -3.4431   -7.3164   32.3027 C   0  0  0  0  0  0  0  0  0  0  0  0
   -2.5329   -8.8598   29.1050 C   0  0  0  0  0  0  0  0  0  0  0  0
   -3.4022   -8.5983   30.1985 O   0  0  0  0  0  0  0  0  0  0  0  0
   -6.1082   -1.9268   31.1292 C   0  0  0  0  0  0  0  0  0  0  0  0
   -6.8162   -0.5976   31.2518 C   0  0  0  0  0  0  0  0  0  0  0  0
   -8.2176   -0.5514   31.3124 C   0  0  0  0  0  0  0  0  0  0  0  0
   -8.8812    0.6720   31.4123 C   0  0  0  0  0  0  0  0  0  0  0  0
   -8.1461    1.8501   31.4454 C   0  0  0  0  0  0  0  0  0  0  0  0
   -8.7842    3.0248   31.5352 F   0  0  0  0  0  0  0  0  0  0  0  0
   -6.7595    1.8279   31.3751 C   0  0  0  0  0  0  0  0  0  0  0  0
   -6.0932    0.6055   31.2732 C   0  0  0  0  0  0  0  0  0  0  0  0
 43 44  1  0
 44 37  1  0
 37 38  2  0
 38 39  1  0
 39 40  2  0
 40 41  1  0
 41 36  1  0
 36 34  1  0
 34 33  1  0
 33 30  1  0
 30 31  1  0
 30 29  1  0
 29 45  1  0
 45 46  1  0
 46 47  2  0
 47 48  1  0
 48 49  2  0
 49 50  1  0
 49 51  1  0
 51 52  2  0
 29  1  1  0
  1  2  1  0
  2  3  2  0
  2  5  1  0
  5  6  2  0
  6  7  1  0
  7 11  1  0
 11 12  2  0
 11 13  1  0
 13 15  1  0
 15 16  1  0
 15 17  1  0
 17 18  2  0
 18 19  1  0
 19 20  2  0
 20 21  1  0
 21 22  2  0
  7  8  2  0
  8  9  1  0
  9 23  1  0
 23 24  1  0
 23 25  1  0
 25 26  1  0
 25 27  2  0
 25 28  2  0
  9 10  2  0
 41 42  2  0
 42 37  1  0
 52 46  1  0
 10  5  1  0
 22 17  1  0
 34 35  1  0
 31 32  1  0
  1  4  1  0
 13 14  1  0
M  END
> <minimizedAffinity>
-10.42953

> <CNNscore>
0.9821356535

> <CNNaffinity>
8.8384046555

> <CNN_VS>
8.6805124283

> <CNNaffinity_variance>
0.5267018676

$$$$



 52 55  0  0  0  0  0  0  0  0999 V2000
   -3.5866   -3.9000   31.8125 N   0  0  0  0  0  0  0  0  0  0  0  0
   -3.4720   -3.5647   30.4845 C   0  0  0  0  0  0  0  0  0  0  0  0
   -4.4368   -3.4482   29.7379 O   0  0  0  0  0  0  0  0  0  0  0  0
   -2.7672   -3.9966   32.3494 H   0  0  0  0  0  0  0  0  0  0  0  0
   -2.0986   -3.3442   29.9758 C   0  0  0  0  0  0  0  0  0  0  0  0
   -1.0878   -4.2202   30.3784 C   0  0  0  0  0  0  0  0  0  0  0  0
    0.2171   -4.0384   29.9082 C   0  0  0  0  0  0  0  0  0  0  0  0
    0.5140   -2.9667   29.0577 C   0  0  0  0  0  0  0  0  0  0  0  0
   -0.4992   -2.0881   28.6680 C   0  0  0  0  0  0  0  0  0  0  0  0
   -1.8121   -2.2981   29.0934 C   0  0  0  0  0  0  0  0  0  0  0  0
    1.2684   -4.9803   30.3643 C   0  0  0  0  0  0  0  0  0  0  0  0
    2.1083   -5.3853   29.5700 O   0  0  0  0  0  0  0  0  0  0  0  0
    1.2441   -5.3126   31.7000 N   0  0  0  0  0  0  0  0  0  0  0  0
    0.5001   -4.9982   32.2629 H   0  0  0  0  0  0  0  0  0  0  0  0
    2.2991   -6.1211   32.2950 C   0  0  0  0  0  0  0  0  0  0  0  0
    1.7079   -7.2677   33.1206 C   0  0  0  0  0  0  0  0  0  0  0  0
    3.2371   -5.2128   33.0727 C   0  0  0  0  0  0  0  0  0  0  0  0
    4.6279   -5.2102   32.8778 C   0  0  0  0  0  0  0  0  0  0  0  0
    5.4535   -4.3774   33.6382 C   0  0  0  0  0  0  0  0  0  0  0  0
    4.9045   -3.5451   34.6107 C   0  0  0  0  0  0  0  0  0  0  0  0
    3.5288   -3.5502   34.8317 C   0  0  0  0  0  0  0  0  0  0  0  0
    2.7024   -4.3808   34.0717 C   0  0  0  0  0  0  0  0  0  0  0  0
   -0.1458   -1.0214   27.7672 N   0  0  0  0  0  0  0  0  0  0  0  0
    1.2815   -0.6144   27.8274 C   0  0  0  0  0  0  0  0  0  0  0  0
   -0.7380   -1.1564   26.1599 S   0  0  0  0  0  0  0  0  0  0  0  0
    0.5529   -0.3511   25.2319 C   0  0  0  0  0  0  0  0  0  0  0  0
   -0.7182   -2.5608   25.8045 O   0  0  0  0  0  0  0  0  0  0  0  0
   -1.9583   -0.3860   26.0418 O   0  0  0  0  0  0  0  0  0  0  0  0
   -4.8907   -4.1203   32.4621 C   0  0  0  0  0  0  0  0  0  0  0  0
   -5.3728   -2.8621   33.2490 C   0  0  0  0  0  0  0  0  0  0  0  0
   -4.5432   -2.6350   34.4059 O   0  0  0  0  0  0  0  0  0  0  0  0
   -4.6447   -3.3735   35.0266 H   0  0  0  0  0  0  0  0  0  0  0  0
   -6.8381   -2.9007   33.7385 C   0  0  0  0  0  0  0  0  0  0  0  0
   -7.6566   -1.8000   33.2247 N   0  0  0  0  0  0  0  0  0  0  0  0
   -8.2087   -1.4179   33.9925 H   0  0  0  0  0  0  0  0  0  0  0  0
   -8.5673   -2.2228   32.1577 C   0  0  0  0  0  0  0  0  0  0  0  0
  -12.3712   -2.0127   31.8865 C   0  0  0  0  0  0  0  0  0  0  0  0
  -12.7252   -1.8994   33.2328 C   0  0  0  0  0  0  0  0  0  0  0  0
  -11.7474   -1.8879   34.2273 C   0  0  0  0  0  0  0  0  0  0  0  0
  -10.4024   -1.9899   33.8788 C   0  0  0  0  0  0  0  0  0  0  0  0
  -10.0255   -2.1007   32.5322 C   0  0  0  0  0  0  0  0  0  0  0  0
  -11.0219   -2.1144   31.5403 C   0  0  0  0  0  0  0  0  0  0  0  0
  -13.2959   -1.2362   29.8375 C   0  0  0  0  0  0  0  0  0  0  0  0
  -13.4284   -2.0150   31.0190 O   0  0  0  0  0  0  0  0  0  0  0  0
   -4.8346   -5.4253   33.2849 C   0  0  0  0  0  0  0  0  0  0  0  0
   -3.8441   -6.4589   32.8016 C   0  0  0  0  0  0  0  0  0  0  0  0
   -2.7258   -6.7806   33.5861 C   0  0  0  0  0  0  0  0  0  0  0  0
   -1.7984   -7.7242   33.1425 C   0  0  0  0  0  0  0  0  0  0  0  0
   -1.9839   -8.3421   31.9124 C   0  0  0  0  0  0  0  0  0  0  0  0
   -1.0899   -9.2435   31.4843 F   0  0  0  0  0  0  0  0  0  0  0  0
   -3.0772   -8.0303   31.1151 C   0  0  0  0  0  0  0  0  0  0  0  0
   -4.0054   -7.0853   31.5557 C   0  0  0  0  0  0  0  0  0  0  0  0
 43 44  1  0
 44 37  1  0
 37 38  2  0
 38 39  1  0
 39 40  2  0
 40 41  1  0
 41 36  1  0
 36 34  1  0
 34 33  1  0
 33 30  1  0
 30 31  1  0
 30 29  1  0
 29 45  1  0
 45 46  1  0
 46 47  2  0
 47 48  1  0
 48 49  2  0
 49 50  1  0
 49 51  1  0
 51 52  2  0
 29  1  1  0
  1  2  1  0
  2  3  2  0
  2  5  1  0
  5  6  2  0
  6  7  1  0
  7 11  1  0
 11 12  2  0
 11 13  1  0
 13 15  1  0
 15 16  1  0
 15 17  1  0
 17 18  2  0
 18 19  1  0
 19 20  2  0
 20 21  1  0
 21 22  2  0
  7  8  2  0
  8  9  1  0
  9 23  1  0
 23 24  1  0
 23 25  1  0
 25 26  1  0
 25 27  2  0
 25 28  2  0
  9 10  2  0
 41 42  2  0
 42 37  1  0
 52 46  1  0
 10  5  1  0
 22 17  1  0
 34 35  1  0
 31 32  1  0
  1  4  1  0
 13 14  1  0
M  END
> <minimizedAffinity>
-12.53110

> <CNNscore>
0.9761567712

> <CNNaffinity>
8.1126060486

> <CNN_VS>
7.9191751480

> <CNNaffinity_variance>
1.0999841690

$$$$



 52 55  0  0  0  0  0  0  0  0999 V2000
   -3.5971   -3.8821   31.7849 N   0  0  0  0  0  0  0  0  0  0  0  0
   -3.4834   -3.5165   30.4650 C   0  0  0  0  0  0  0  0  0  0  0  0
   -4.4494   -3.3734   29.7245 O   0  0  0  0  0  0  0  0  0  0  0  0
   -2.7769   -3.9990   32.3168 H   0  0  0  0  0  0  0  0  0  0  0  0
   -2.1096   -3.2967   29.9571 C   0  0  0  0  0  0  0  0  0  0  0  0
   -1.0972   -4.1662   30.3696 C   0  0  0  0  0  0  0  0  0  0  0  0
    0.2081   -3.9849   29.9004 C   0  0  0  0  0  0  0  0  0  0  0  0
    0.5038   -2.9200   29.0409 C   0  0  0  0  0  0  0  0  0  0  0  0
   -0.5110   -2.0478   28.6414 C   0  0  0  0  0  0  0  0  0  0  0  0
   -1.8242   -2.2577   29.0659 C   0  0  0  0  0  0  0  0  0  0  0  0
    1.2612   -4.9197   30.3670 C   0  0  0  0  0  0  0  0  0  0  0  0
    2.0869   -5.3515   29.5720 O   0  0  0  0  0  0  0  0  0  0  0  0
    1.2549   -5.2146   31.7116 N   0  0  0  0  0  0  0  0  0  0  0  0
    0.5212   -4.8804   32.2765 H   0  0  0  0  0  0  0  0  0  0  0  0
    2.3144   -6.0122   32.3134 C   0  0  0  0  0  0  0  0  0  0  0  0
    1.7350   -7.2287   33.0417 C   0  0  0  0  0  0  0  0  0  0  0  0
    3.1724   -5.1130   33.1881 C   0  0  0  0  0  0  0  0  0  0  0  0
    4.5683   -5.0328   33.0573 C   0  0  0  0  0  0  0  0  0  0  0  0
    5.3186   -4.2130   33.9048 C   0  0  0  0  0  0  0  0  0  0  0  0
    4.6882   -3.4717   34.9012 C   0  0  0  0  0  0  0  0  0  0  0  0
    3.3063   -3.5553   35.0586 C   0  0  0  0  0  0  0  0  0  0  0  0
    2.5552   -4.3730   34.2115 C   0  0  0  0  0  0  0  0  0  0  0  0
   -0.1588   -0.9882   27.7318 N   0  0  0  0  0  0  0  0  0  0  0  0
    1.2809   -0.6226   27.7430 C   0  0  0  0  0  0  0  0  0  0  0  0
   -0.8105   -1.0998   26.1459 S   0  0  0  0  0  0  0  0  0  0  0  0
    0.4483   -0.2866   25.1813 C   0  0  0  0  0  0  0  0  0  0  0  0
   -0.8092   -2.4995   25.7715 O   0  0  0  0  0  0  0  0  0  0  0  0
   -2.0314   -0.3239   26.0832 O   0  0  0  0  0  0  0  0  0  0  0  0
   -4.9012   -4.1056   32.4335 C   0  0  0  0  0  0  0  0  0  0  0  0
   -5.4062   -2.8355   33.1861 C   0  0  0  0  0  0  0  0  0  0  0  0
   -4.5216   -2.5018   34.2744 O   0  0  0  0  0  0  0  0  0  0  0  0
   -4.5417   -3.2106   34.9363 H   0  0  0  0  0  0  0  0  0  0  0  0
   -6.8340   -2.9283   33.7703 C   0  0  0  0  0  0  0  0  0  0  0  0
   -7.7101   -1.8312   33.3528 N   0  0  0  0  0  0  0  0  0  0  0  0
   -8.6579   -2.0308   33.6726 H   0  0  0  0  0  0  0  0  0  0  0  0
   -7.7345   -1.6490   31.8992 C   0  0  0  0  0  0  0  0  0  0  0  0
   -8.6070    1.8726   30.7054 C   0  0  0  0  0  0  0  0  0  0  0  0
   -7.3461    2.4732   30.7137 C   0  0  0  0  0  0  0  0  0  0  0  0
   -6.2165    1.7516   31.0989 C   0  0  0  0  0  0  0  0  0  0  0  0
   -6.3423    0.4175   31.4798 C   0  0  0  0  0  0  0  0  0  0  0  0
   -7.5990   -0.2057   31.4748 C   0  0  0  0  0  0  0  0  0  0  0  0
   -8.7298    0.5348   31.0874 C   0  0  0  0  0  0  0  0  0  0  0  0
  -10.6706    2.1080   29.5468 C   0  0  0  0  0  0  0  0  0  0  0  0
   -9.6259    2.6951   30.3110 O   0  0  0  0  0  0  0  0  0  0  0  0
   -4.8299   -5.3886   33.2891 C   0  0  0  0  0  0  0  0  0  0  0  0
   -3.8486   -6.4351   32.8148 C   0  0  0  0  0  0  0  0  0  0  0  0
   -4.0167   -7.0371   31.5582 C   0  0  0  0  0  0  0  0  0  0  0  0
   -3.1234   -8.0140   31.1168 C   0  0  0  0  0  0  0  0  0  0  0  0
   -2.0657   -8.3948   31.9326 C   0  0  0  0  0  0  0  0  0  0  0  0
   -1.2119   -9.3372   31.5107 F   0  0  0  0  0  0  0  0  0  0  0  0
   -1.8875   -7.8204   33.1843 C   0  0  0  0  0  0  0  0  0  0  0  0
   -2.7808   -6.8442   33.6290 C   0  0  0  0  0  0  0  0  0  0  0  0
 43 44  1  0
 44 37  1  0
 37 38  2  0
 38 39  1  0
 39 40  2  0
 40 41  1  0
 41 36  1  0
 36 34  1  0
 34 33  1  0
 33 30  1  0
 30 31  1  0
 30 29  1  0
 29 45  1  0
 45 46  1  0
 46 47  2  0
 47 48  1  0
 48 49  2  0
 49 50  1  0
 49 51  1  0
 51 52  2  0
 29  1  1  0
  1  2  1  0
  2  3  2  0
  2  5  1  0
  5  6  2  0
  6  7  1  0
  7 11  1  0
 11 12  2  0
 11 13  1  0
 13 15  1  0
 15 16  1  0
 15 17  1  0
 17 18  2  0
 18 19  1  0
 19 20  2  0
 20 21  1  0
 21 22  2  0
  7  8  2  0
  8  9  1  0
  9 23  1  0
 23 24  1  0
 23 25  1  0
 25 26  1  0
 25 27  2  0
 25 28  2  0
  9 10  2  0
 41 42  2  0
 42 37  1  0
 52 46  1  0
 10  5  1  0
 22 17  1  0
 34 35  1  0
 31 32  1  0
  1  4  1  0
 13 14  1  0
M  END
> <minimizedAffinity>
-12.34980

> <CNNscore>
0.9527366757

> <CNNaffinity>
8.0872316360

> <CNN_VS>
7.7050023079

> <CNNaffinity_variance>
1.1934326887

$$$$



 52 55  0  0  0  0  0  0  0  0999 V2000
   -3.5537   -4.0506   31.6497 N   0  0  0  0  0  0  0  0  0  0  0  0
   -3.4576   -3.4030   30.4413 C   0  0  0  0  0  0  0  0  0  0  0  0
   -4.4246   -2.9268   29.8583 O   0  0  0  0  0  0  0  0  0  0  0  0
   -2.7379   -4.4273   32.0519 H   0  0  0  0  0  0  0  0  0  0  0  0
   -2.1020   -3.3006   29.8535 C   0  0  0  0  0  0  0  0  0  0  0  0
   -1.0662   -4.0406   30.4286 C   0  0  0  0  0  0  0  0  0  0  0  0
    0.2226   -3.9669   29.8896 C   0  0  0  0  0  0  0  0  0  0  0  0
    0.4788   -3.1341   28.7937 C   0  0  0  0  0  0  0  0  0  0  0  0
   -0.5590   -2.3884   28.2307 C   0  0  0  0  0  0  0  0  0  0  0  0
   -1.8566   -2.5006   28.7333 C   0  0  0  0  0  0  0  0  0  0  0  0
    1.3014   -4.7572   30.5315 C   0  0  0  0  0  0  0  0  0  0  0  0
    1.5921   -4.5504   31.7032 O   0  0  0  0  0  0  0  0  0  0  0  0
    1.8916   -5.7226   29.7475 N   0  0  0  0  0  0  0  0  0  0  0  0
    1.6494   -5.7870   28.7954 H   0  0  0  0  0  0  0  0  0  0  0  0
    2.8680   -6.6504   30.3013 C   0  0  0  0  0  0  0  0  0  0  0  0
    2.7339   -6.7387   31.8245 C   0  0  0  0  0  0  0  0  0  0  0  0
    4.2538   -6.2533   29.8200 C   0  0  0  0  0  0  0  0  0  0  0  0
    4.5727   -6.1041   28.4605 C   0  0  0  0  0  0  0  0  0  0  0  0
    5.8697   -5.7660   28.0646 C   0  0  0  0  0  0  0  0  0  0  0  0
    6.8682   -5.5836   29.0182 C   0  0  0  0  0  0  0  0  0  0  0  0
    6.5744   -5.7481   30.3703 C   0  0  0  0  0  0  0  0  0  0  0  0
    5.2785   -6.0847   30.7674 C   0  0  0  0  0  0  0  0  0  0  0  0
   -0.2476   -1.5723   27.0856 N   0  0  0  0  0  0  0  0  0  0  0  0
   -1.3850   -0.7595   26.5833 C   0  0  0  0  0  0  0  0  0  0  0  0
    1.2262   -0.6919   27.1578 S   0  0  0  0  0  0  0  0  0  0  0  0
    2.3388   -1.7809   26.2904 C   0  0  0  0  0  0  0  0  0  0  0  0
    1.0630    0.4985   26.3482 O   0  0  0  0  0  0  0  0  0  0  0  0
    1.6452   -0.5884   28.5400 O   0  0  0  0  0  0  0  0  0  0  0  0
   -4.8327   -4.2021   32.3655 C   0  0  0  0  0  0  0  0  0  0  0  0
   -5.2077   -2.9201   33.1721 C   0  0  0  0  0  0  0  0  0  0  0  0
   -4.2527   -2.6824   34.2255 O   0  0  0  0  0  0  0  0  0  0  0  0
   -4.2955   -3.4061   34.8700 H   0  0  0  0  0  0  0  0  0  0  0  0
   -6.6106   -2.9246   33.8202 C   0  0  0  0  0  0  0  0  0  0  0  0
   -7.5838   -2.0864   33.1162 N   0  0  0  0  0  0  0  0  0  0  0  0
   -8.4698   -2.5891   33.0634 H   0  0  0  0  0  0  0  0  0  0  0  0
   -7.1571   -1.7446   31.7569 C   0  0  0  0  0  0  0  0  0  0  0  0
   -7.8534    1.7941   30.4995 C   0  0  0  0  0  0  0  0  0  0  0  0
   -9.1922    1.6792   30.1181 C   0  0  0  0  0  0  0  0  0  0  0  0
   -9.8729    0.4709   30.2651 C   0  0  0  0  0  0  0  0  0  0  0  0
   -9.2149   -0.6356   30.7977 C   0  0  0  0  0  0  0  0  0  0  0  0
   -7.8717   -0.5403   31.1904 C   0  0  0  0  0  0  0  0  0  0  0  0
   -7.1967    0.6831   31.0335 C   0  0  0  0  0  0  0  0  0  0  0  0
   -7.8696    4.1122   31.0310 C   0  0  0  0  0  0  0  0  0  0  0  0
   -7.3089    3.0321   30.2969 O   0  0  0  0  0  0  0  0  0  0  0  0
   -4.8030   -5.5079   33.1884 C   0  0  0  0  0  0  0  0  0  0  0  0
   -3.7934   -6.5387   32.7397 C   0  0  0  0  0  0  0  0  0  0  0  0
   -3.9741   -7.2155   31.5235 C   0  0  0  0  0  0  0  0  0  0  0  0
   -3.0544   -8.1786   31.1067 C   0  0  0  0  0  0  0  0  0  0  0  0
   -1.9574   -8.4708   31.9070 C   0  0  0  0  0  0  0  0  0  0  0  0
   -1.0780   -9.4000   31.5090 F   0  0  0  0  0  0  0  0  0  0  0  0
   -1.7656   -7.8213   33.1193 C   0  0  0  0  0  0  0  0  0  0  0  0
   -2.6851   -6.8588   33.5395 C   0  0  0  0  0  0  0  0  0  0  0  0
 43 44  1  0
 44 37  1  0
 37 38  2  0
 38 39  1  0
 39 40  2  0
 40 41  1  0
 41 36  1  0
 36 34  1  0
 34 33  1  0
 33 30  1  0
 30 31  1  0
 30 29  1  0
 29 45  1  0
 45 46  1  0
 46 47  2  0
 47 48  1  0
 48 49  2  0
 49 50  1  0
 49 51  1  0
 51 52  2  0
 29  1  1  0
  1  2  1  0
  2  3  2  0
  2  5  1  0
  5  6  2  0
  6  7  1  0
  7 11  1  0
 11 12  2  0
 11 13  1  0
 13 15  1  0
 15 16  1  0
 15 17  1  0
 17 18  2  0
 18 19  1  0
 19 20  2  0
 20 21  1  0
 21 22  2  0
  7  8  2  0
  8  9  1  0
  9 23  1  0
 23 24  1  0
 23 25  1  0
 25 26  1  0
 25 27  2  0
 25 28  2  0
  9 10  2  0
 41 42  2  0
 42 37  1  0
 52 46  1  0
 10  5  1  0
 22 17  1  0
 34 35  1  0
 31 32  1  0
  1  4  1  0
 13 14  1  0
M  END
> <minimizedAffinity>
-11.14335

> <CNNscore>
0.9297378063

> <CNNaffinity>
7.5791687965

> <CNN_VS>
7.0466399193

> <CNNaffinity_variance>
1.4392461777

$$$$



 52 55  0  0  0  0  0  0  0  0999 V2000
   -3.8370   -2.4851   31.5353 N   0  0  0  0  0  0  0  0  0  0  0  0
   -3.6427   -3.1789   30.3649 C   0  0  0  0  0  0  0  0  0  0  0  0
   -4.5317   -3.8102   29.8056 O   0  0  0  0  0  0  0  0  0  0  0  0
   -3.0722   -2.0163   31.9410 H   0  0  0  0  0  0  0  0  0  0  0  0
   -2.2786   -3.1338   29.7897 C   0  0  0  0  0  0  0  0  0  0  0  0
   -1.2710   -3.8853   30.3989 C   0  0  0  0  0  0  0  0  0  0  0  0
    0.0250   -3.8656   29.8727 C   0  0  0  0  0  0  0  0  0  0  0  0
    0.3169   -3.0748   28.7549 C   0  0  0  0  0  0  0  0  0  0  0  0
   -0.6927   -2.3171   28.1575 C   0  0  0  0  0  0  0  0  0  0  0  0
   -1.9982   -2.3762   28.6485 C   0  0  0  0  0  0  0  0  0  0  0  0
    1.0735   -4.6666   30.5506 C   0  0  0  0  0  0  0  0  0  0  0  0
    1.3084   -4.4802   31.7382 O   0  0  0  0  0  0  0  0  0  0  0  0
    1.7012   -5.6177   29.7785 N   0  0  0  0  0  0  0  0  0  0  0  0
    1.5042   -5.6654   28.8151 H   0  0  0  0  0  0  0  0  0  0  0  0
    2.6517   -6.5546   30.3612 C   0  0  0  0  0  0  0  0  0  0  0  0
    3.1032   -6.0828   31.7467 C   0  0  0  0  0  0  0  0  0  0  0  0
    3.7890   -6.7787   29.3784 C   0  0  0  0  0  0  0  0  0  0  0  0
    3.6233   -7.4740   28.1695 C   0  0  0  0  0  0  0  0  0  0  0  0
    4.7064   -7.6806   27.3108 C   0  0  0  0  0  0  0  0  0  0  0  0
    5.9710   -7.2069   27.6515 C   0  0  0  0  0  0  0  0  0  0  0  0
    6.1578   -6.5331   28.8568 C   0  0  0  0  0  0  0  0  0  0  0  0
    5.0761   -6.3248   29.7152 C   0  0  0  0  0  0  0  0  0  0  0  0
   -0.3456   -1.5461   26.9917 N   0  0  0  0  0  0  0  0  0  0  0  0
   -1.4602   -0.7358   26.4371 C   0  0  0  0  0  0  0  0  0  0  0  0
    1.1390   -0.6841   27.0648 S   0  0  0  0  0  0  0  0  0  0  0  0
    2.2538   -1.8185   26.2606 C   0  0  0  0  0  0  0  0  0  0  0  0
    1.0104    0.4789   26.2104 O   0  0  0  0  0  0  0  0  0  0  0  0
    1.5301   -0.5373   28.4512 O   0  0  0  0  0  0  0  0  0  0  0  0
   -5.1475   -2.4169   32.2053 C   0  0  0  0  0  0  0  0  0  0  0  0
   -5.4261   -3.6809   33.0768 C   0  0  0  0  0  0  0  0  0  0  0  0
   -6.1931   -3.3348   34.2472 O   0  0  0  0  0  0  0  0  0  0  0  0
   -5.6692   -2.7485   34.8154 H   0  0  0  0  0  0  0  0  0  0  0  0
   -4.1749   -4.4478   33.5612 C   0  0  0  0  0  0  0  0  0  0  0  0
   -4.4781   -5.7619   34.1327 N   0  0  0  0  0  0  0  0  0  0  0  0
   -3.7337   -6.0147   34.7827 H   0  0  0  0  0  0  0  0  0  0  0  0
   -4.5872   -6.8098   33.1146 C   0  0  0  0  0  0  0  0  0  0  0  0
   -0.8874   -7.6008   32.5914 C   0  0  0  0  0  0  0  0  0  0  0  0
   -0.8452   -7.7565   31.2040 C   0  0  0  0  0  0  0  0  0  0  0  0
   -1.9994   -7.6064   30.4356 C   0  0  0  0  0  0  0  0  0  0  0  0
   -3.2090   -7.2976   31.0538 C   0  0  0  0  0  0  0  0  0  0  0  0
   -3.2722   -7.1333   32.4454 C   0  0  0  0  0  0  0  0  0  0  0  0
   -2.1016   -7.2908   33.2082 C   0  0  0  0  0  0  0  0  0  0  0  0
    0.7430   -6.7472   34.0979 C   0  0  0  0  0  0  0  0  0  0  0  0
    0.3137   -7.7794   33.2203 O   0  0  0  0  0  0  0  0  0  0  0  0
   -6.2359   -2.0891   31.1607 C   0  0  0  0  0  0  0  0  0  0  0  0
   -6.8781   -0.7278   31.2933 C   0  0  0  0  0  0  0  0  0  0  0  0
   -8.2683   -0.6198   31.4524 C   0  0  0  0  0  0  0  0  0  0  0  0
   -8.8723    0.6333   31.5625 C   0  0  0  0  0  0  0  0  0  0  0  0
   -8.0891    1.7791   31.5073 C   0  0  0  0  0  0  0  0  0  0  0  0
   -8.6704    2.9822   31.6069 F   0  0  0  0  0  0  0  0  0  0  0  0
   -6.7133    1.6955   31.3389 C   0  0  0  0  0  0  0  0  0  0  0  0
   -6.1068    0.4431   31.2266 C   0  0  0  0  0  0  0  0  0  0  0  0
 43 44  1  0
 44 37  1  0
 37 38  2  0
 38 39  1  0
 39 40  2  0
 40 41  1  0
 41 36  1  0
 36 34  1  0
 34 33  1  0
 33 30  1  0
 30 31  1  0
 30 29  1  0
 29 45  1  0
 45 46  1  0
 46 47  2  0
 47 48  1  0
 48 49  2  0
 49 50  1  0
 49 51  1  0
 51 52  2  0
 29  1  1  0
  1  2  1  0
  2  3  2  0
  2  5  1  0
  5  6  2  0
  6  7  1  0
  7 11  1  0
 11 12  2  0
 11 13  1  0
 13 15  1  0
 15 16  1  0
 15 17  1  0
 17 18  2  0
 18 19  1  0
 19 20  2  0
 20 21  1  0
 21 22  2  0
  7  8  2  0
  8  9  1  0
  9 23  1  0
 23 24  1  0
 23 25  1  0
 25 26  1  0
 25 27  2  0
 25 28  2  0
  9 10  2  0
 41 42  2  0
 42 37  1  0
 52 46  1  0
 10  5  1  0
 22 17  1  0
 34 35  1  0
 31 32  1  0
  1  4  1  0
 13 14  1  0
M  END
> <minimizedAffinity>
-10.81211

> <CNNscore>
0.8897596002

> <CNNaffinity>
7.7468028069

> <CNN_VS>
6.8927922249

> <CNNaffinity_variance>
1.5960096121

$$$$



 52 55  0  0  0  0  0  0  0  0999 V2000
   -3.3079   -3.8324   31.6649 N   0  0  0  0  0  0  0  0  0  0  0  0
   -2.9678   -3.2207   30.4821 C   0  0  0  0  0  0  0  0  0  0  0  0
   -3.7653   -2.5820   29.8054 O   0  0  0  0  0  0  0  0  0  0  0  0
   -2.6210   -4.3472   32.1470 H   0  0  0  0  0  0  0  0  0  0  0  0
   -1.5608   -3.3680   30.0436 C   0  0  0  0  0  0  0  0  0  0  0  0
   -1.0031   -2.3712   29.2397 C   0  0  0  0  0  0  0  0  0  0  0  0
    0.3255   -2.4824   28.8163 C   0  0  0  0  0  0  0  0  0  0  0  0
    1.0854   -3.6020   29.1756 C   0  0  0  0  0  0  0  0  0  0  0  0
    0.5181   -4.6005   29.9702 C   0  0  0  0  0  0  0  0  0  0  0  0
   -0.7904   -4.4663   30.4378 C   0  0  0  0  0  0  0  0  0  0  0  0
    0.8828   -1.4114   27.9545 C   0  0  0  0  0  0  0  0  0  0  0  0
    1.5027   -0.4842   28.4608 O   0  0  0  0  0  0  0  0  0  0  0  0
    0.6874   -1.5623   26.6002 N   0  0  0  0  0  0  0  0  0  0  0  0
    0.1240   -2.3000   26.2723 H   0  0  0  0  0  0  0  0  0  0  0  0
    1.2993   -0.6502   25.6440 C   0  0  0  0  0  0  0  0  0  0  0  0
    0.2334    0.0280   24.7779 C   0  0  0  0  0  0  0  0  0  0  0  0
    2.3583   -1.4013   24.8541 C   0  0  0  0  0  0  0  0  0  0  0  0
    2.7338   -2.7217   25.1503 C   0  0  0  0  0  0  0  0  0  0  0  0
    3.7344   -3.3615   24.4136 C   0  0  0  0  0  0  0  0  0  0  0  0
    4.3816   -2.6892   23.3797 C   0  0  0  0  0  0  0  0  0  0  0  0
    4.0361   -1.3718   23.0857 C   0  0  0  0  0  0  0  0  0  0  0  0
    3.0355   -0.7317   23.8201 C   0  0  0  0  0  0  0  0  0  0  0  0
    1.3534   -5.7150   30.3367 N   0  0  0  0  0  0  0  0  0  0  0  0
    2.5007   -5.9492   29.4226 C   0  0  0  0  0  0  0  0  0  0  0  0
    1.7834   -5.8293   31.9963 S   0  0  0  0  0  0  0  0  0  0  0  0
    3.3820   -6.6113   31.9009 C   0  0  0  0  0  0  0  0  0  0  0  0
    1.9869   -4.4816   32.4877 O   0  0  0  0  0  0  0  0  0  0  0  0
    0.8577   -6.7218   32.6619 O   0  0  0  0  0  0  0  0  0  0  0  0
   -4.6625   -3.7462   32.2382 C   0  0  0  0  0  0  0  0  0  0  0  0
   -4.8894   -2.4069   33.0059 C   0  0  0  0  0  0  0  0  0  0  0  0
   -5.1482   -2.6565   34.4019 O   0  0  0  0  0  0  0  0  0  0  0  0
   -5.9821   -3.1432   34.4942 H   0  0  0  0  0  0  0  0  0  0  0  0
   -6.0413   -1.5214   32.4793 C   0  0  0  0  0  0  0  0  0  0  0  0
   -7.3455   -2.1880   32.4922 N   0  0  0  0  0  0  0  0  0  0  0  0
   -7.5055   -2.6097   31.5773 H   0  0  0  0  0  0  0  0  0  0  0  0
   -8.4479   -1.2679   32.7835 C   0  0  0  0  0  0  0  0  0  0  0  0
   -9.0664    1.6194   30.3610 C   0  0  0  0  0  0  0  0  0  0  0  0
   -9.7385    0.9587   29.3302 C   0  0  0  0  0  0  0  0  0  0  0  0
   -9.9958   -0.4096   29.4107 C   0  0  0  0  0  0  0  0  0  0  0  0
   -9.5805   -1.1289   30.5292 C   0  0  0  0  0  0  0  0  0  0  0  0
   -8.9074   -0.4837   31.5771 C   0  0  0  0  0  0  0  0  0  0  0  0
   -8.6517    0.8956   31.4812 C   0  0  0  0  0  0  0  0  0  0  0  0
   -7.7523    3.5573   30.7782 C   0  0  0  0  0  0  0  0  0  0  0  0
   -8.8775    2.9574   30.1505 O   0  0  0  0  0  0  0  0  0  0  0  0
   -4.9517   -5.0251   33.0532 C   0  0  0  0  0  0  0  0  0  0  0  0
   -4.0788   -6.2154   32.7304 C   0  0  0  0  0  0  0  0  0  0  0  0
   -3.2163   -6.7389   33.7060 C   0  0  0  0  0  0  0  0  0  0  0  0
   -2.3967   -7.8296   33.4136 C   0  0  0  0  0  0  0  0  0  0  0  0
   -2.4333   -8.3941   32.1450 C   0  0  0  0  0  0  0  0  0  0  0  0
   -1.6416   -9.4376   31.8630 F   0  0  0  0  0  0  0  0  0  0  0  0
   -3.2708   -7.8848   31.1614 C   0  0  0  0  0  0  0  0  0  0  0  0
   -4.0904   -6.7925   31.4508 C   0  0  0  0  0  0  0  0  0  0  0  0
 43 44  1  0
 44 37  1  0
 37 38  2  0
 38 39  1  0
 39 40  2  0
 40 41  1  0
 41 36  1  0
 36 34  1  0
 34 33  1  0
 33 30  1  0
 30 31  1  0
 30 29  1  0
 29 45  1  0
 45 46  1  0
 46 47  2  0
 47 48  1  0
 48 49  2  0
 49 50  1  0
 49 51  1  0
 51 52  2  0
 29  1  1  0
  1  2  1  0
  2  3  2  0
  2  5  1  0
  5  6  2  0
  6  7  1  0
  7 11  1  0
 11 12  2  0
 11 13  1  0
 13 15  1  0
 15 16  1  0
 15 17  1  0
 17 18  2  0
 18 19  1  0
 19 20  2  0
 20 21  1  0
 21 22  2  0
  7  8  2  0
  8  9  1  0
  9 23  1  0
 23 24  1  0
 23 25  1  0
 25 26  1  0
 25 27  2  0
 25 28  2  0
  9 10  2  0
 41 42  2  0
 42 37  1  0
 52 46  1  0
 10  5  1  0
 22 17  1  0
 34 35  1  0
 31 32  1  0
  1  4  1  0
 13 14  1  0
M  END
> <minimizedAffinity>
-10.09486

> <CNNscore>
0.4874546826

> <CNNaffinity>
7.2460198402

> <CNN_VS>
3.5321063995

> <CNNaffinity_variance>
0.8103092313

$$$$



 52 55  0  0  0  0  0  0  0  0999 V2000
    0.7205   -5.2970   32.2164 N   0  0  0  0  0  0  0  0  0  0  0  0
    0.8605   -5.1118   30.8617 C   0  0  0  0  0  0  0  0  0  0  0  0
    1.7152   -5.6814   30.1931 O   0  0  0  0  0  0  0  0  0  0  0  0
    0.0247   -4.7906   32.6946 H   0  0  0  0  0  0  0  0  0  0  0  0
   -0.0873   -4.1699   30.2230 C   0  0  0  0  0  0  0  0  0  0  0  0
   -1.3787   -4.0644   30.7446 C   0  0  0  0  0  0  0  0  0  0  0  0
   -2.2922   -3.1781   30.1641 C   0  0  0  0  0  0  0  0  0  0  0  0
   -1.9213   -2.4187   29.0480 C   0  0  0  0  0  0  0  0  0  0  0  0
   -0.6320   -2.5374   28.5246 C   0  0  0  0  0  0  0  0  0  0  0  0
    0.2978   -3.3816   29.1342 C   0  0  0  0  0  0  0  0  0  0  0  0
   -3.6586   -3.0989   30.7362 C   0  0  0  0  0  0  0  0  0  0  0  0
   -4.6249   -3.4014   30.0470 O   0  0  0  0  0  0  0  0  0  0  0  0
   -3.7402   -2.7133   32.0552 N   0  0  0  0  0  0  0  0  0  0  0  0
   -2.9252   -2.4239   32.5256 H   0  0  0  0  0  0  0  0  0  0  0  0
   -5.0106   -2.7257   32.7670 C   0  0  0  0  0  0  0  0  0  0  0  0
   -5.5390   -4.1556   32.9153 C   0  0  0  0  0  0  0  0  0  0  0  0
   -5.9730   -1.7748   32.0747 C   0  0  0  0  0  0  0  0  0  0  0  0
   -5.6284   -0.4554   31.7388 C   0  0  0  0  0  0  0  0  0  0  0  0
   -6.5577    0.3917   31.1288 C   0  0  0  0  0  0  0  0  0  0  0  0
   -7.8461   -0.0618   30.8566 C   0  0  0  0  0  0  0  0  0  0  0  0
   -8.2115   -1.3613   31.2020 C   0  0  0  0  0  0  0  0  0  0  0  0
   -7.2835   -2.2093   31.8104 C   0  0  0  0  0  0  0  0  0  0  0  0
   -0.2928   -1.7103   27.3954 N   0  0  0  0  0  0  0  0  0  0  0  0
   -1.4064   -0.8616   26.8993 C   0  0  0  0  0  0  0  0  0  0  0  0
    1.2016   -0.8678   27.4920 S   0  0  0  0  0  0  0  0  0  0  0  0
    2.3181   -2.0263   26.7255 C   0  0  0  0  0  0  0  0  0  0  0  0
    1.1080    0.2870   26.6220 O   0  0  0  0  0  0  0  0  0  0  0  0
    1.5639   -0.7104   28.8850 O   0  0  0  0  0  0  0  0  0  0  0  0
    1.5732   -6.2253   32.9794 C   0  0  0  0  0  0  0  0  0  0  0  0
    3.0870   -6.0309   32.6549 C   0  0  0  0  0  0  0  0  0  0  0  0
    3.4403   -4.6337   32.6865 O   0  0  0  0  0  0  0  0  0  0  0  0
    2.9697   -4.1651   31.9795 H   0  0  0  0  0  0  0  0  0  0  0  0
    3.5557   -6.5897   31.2924 C   0  0  0  0  0  0  0  0  0  0  0  0
    4.8804   -6.1129   30.8882 N   0  0  0  0  0  0  0  0  0  0  0  0
    4.9487   -5.1181   31.1028 H   0  0  0  0  0  0  0  0  0  0  0  0
    5.1376   -6.3026   29.4583 C   0  0  0  0  0  0  0  0  0  0  0  0
    6.3250   -3.4115   27.2630 C   0  0  0  0  0  0  0  0  0  0  0  0
    7.6115   -3.2089   27.7678 C   0  0  0  0  0  0  0  0  0  0  0  0
    8.1001   -3.9982   28.8086 C   0  0  0  0  0  0  0  0  0  0  0  0
    7.3004   -5.0005   29.3533 C   0  0  0  0  0  0  0  0  0  0  0  0
    6.0069   -5.2229   28.8583 C   0  0  0  0  0  0  0  0  0  0  0  0
    5.5259   -4.4174   27.8109 C   0  0  0  0  0  0  0  0  0  0  0  0
    7.0284   -2.0112   25.4740 C   0  0  0  0  0  0  0  0  0  0  0  0
    5.9730   -2.5657   26.2477 O   0  0  0  0  0  0  0  0  0  0  0  0
    1.0448   -7.6647   32.8000 C   0  0  0  0  0  0  0  0  0  0  0  0
   -0.3850   -7.7801   32.3251 C   0  0  0  0  0  0  0  0  0  0  0  0
   -1.4411   -7.4630   33.1933 C   0  0  0  0  0  0  0  0  0  0  0  0
   -2.7651   -7.5789   32.7684 C   0  0  0  0  0  0  0  0  0  0  0  0
   -3.0353   -8.0177   31.4785 C   0  0  0  0  0  0  0  0  0  0  0  0
   -4.3070   -8.1346   31.0731 F   0  0  0  0  0  0  0  0  0  0  0  0
   -2.0059   -8.3477   30.6069 C   0  0  0  0  0  0  0  0  0  0  0  0
   -0.6805   -8.2343   31.0301 C   0  0  0  0  0  0  0  0  0  0  0  0
 43 44  1  0
 44 37  1  0
 37 38  2  0
 38 39  1  0
 39 40  2  0
 40 41  1  0
 41 36  1  0
 36 34  1  0
 34 33  1  0
 33 30  1  0
 30 31  1  0
 30 29  1  0
 29 45  1  0
 45 46  1  0
 46 47  2  0
 47 48  1  0
 48 49  2  0
 49 50  1  0
 49 51  1  0
 51 52  2  0
 29  1  1  0
  1  2  1  0
  2  3  2  0
  2  5  1  0
  5  6  2  0
  6  7  1  0
  7 11  1  0
 11 12  2  0
 11 13  1  0
 13 15  1  0
 15 16  1  0
 15 17  1  0
 17 18  2  0
 18 19  1  0
 19 20  2  0
 20 21  1  0
 21 22  2  0
  7  8  2  0
  8  9  1  0
  9 23  1  0
 23 24  1  0
 23 25  1  0
 25 26  1  0
 25 27  2  0
 25 28  2  0
  9 10  2  0
 41 42  2  0
 42 37  1  0
 52 46  1  0
 10  5  1  0
 22 17  1  0
 34 35  1  0
 31 32  1  0
  1  4  1  0
 13 14  1  0
M  END
> <minimizedAffinity>
-10.02852

> <CNNscore>
0.4317176342

> <CNNaffinity>
7.1593918800

> <CNN_VS>
3.0908358097

> <CNNaffinity_variance>
1.2185180187

$$$$



 52 55  0  0  0  0  0  0  0  0999 V2000
    1.2179   -5.6165   29.9065 N   0  0  0  0  0  0  0  0  0  0  0  0
    0.7824   -4.4756   30.5371 C   0  0  0  0  0  0  0  0  0  0  0  0
    1.1704   -4.1355   31.6487 O   0  0  0  0  0  0  0  0  0  0  0  0
    0.8482   -5.8397   29.0218 H   0  0  0  0  0  0  0  0  0  0  0  0
   -0.2026   -3.6499   29.8012 C   0  0  0  0  0  0  0  0  0  0  0  0
   -1.5164   -3.5975   30.2728 C   0  0  0  0  0  0  0  0  0  0  0  0
   -2.4655   -2.8207   29.6001 C   0  0  0  0  0  0  0  0  0  0  0  0
   -2.1061   -2.1190   28.4431 C   0  0  0  0  0  0  0  0  0  0  0  0
   -0.7936   -2.1848   27.9707 C   0  0  0  0  0  0  0  0  0  0  0  0
    0.1680   -2.9166   28.6698 C   0  0  0  0  0  0  0  0  0  0  0  0
   -3.8540   -2.7960   30.1216 C   0  0  0  0  0  0  0  0  0  0  0  0
   -4.6440   -3.6714   29.7898 O   0  0  0  0  0  0  0  0  0  0  0  0
   -4.1524   -1.7776   30.9985 N   0  0  0  0  0  0  0  0  0  0  0  0
   -3.4846   -1.0743   31.1678 H   0  0  0  0  0  0  0  0  0  0  0  0
   -5.4381   -1.7220   31.6800 C   0  0  0  0  0  0  0  0  0  0  0  0
   -6.3185   -2.9104   31.2818 C   0  0  0  0  0  0  0  0  0  0  0  0
   -6.0724   -0.3644   31.4264 C   0  0  0  0  0  0  0  0  0  0  0  0
   -7.4091   -0.0778   31.7480 C   0  0  0  0  0  0  0  0  0  0  0  0
   -7.9569    1.1773   31.4688 C   0  0  0  0  0  0  0  0  0  0  0  0
   -7.1828    2.1589   30.8548 C   0  0  0  0  0  0  0  0  0  0  0  0
   -5.8609    1.8847   30.5100 C   0  0  0  0  0  0  0  0  0  0  0  0
   -5.3117    0.6315   30.7896 C   0  0  0  0  0  0  0  0  0  0  0  0
   -0.4698   -1.4190   26.7947 N   0  0  0  0  0  0  0  0  0  0  0  0
   -1.6046   -0.6383   26.2387 C   0  0  0  0  0  0  0  0  0  0  0  0
    0.9967   -0.5253   26.8496 S   0  0  0  0  0  0  0  0  0  0  0  0
    2.0955   -1.5796   25.9237 C   0  0  0  0  0  0  0  0  0  0  0  0
    0.7995    0.6839   26.0763 O   0  0  0  0  0  0  0  0  0  0  0  0
    1.4528   -0.4534   28.2220 O   0  0  0  0  0  0  0  0  0  0  0  0
    2.2177   -6.5179   30.5057 C   0  0  0  0  0  0  0  0  0  0  0  0
    2.8699   -5.9028   31.7828 C   0  0  0  0  0  0  0  0  0  0  0  0
    4.3075   -5.9805   31.7095 O   0  0  0  0  0  0  0  0  0  0  0  0
    4.5815   -6.9110   31.7108 H   0  0  0  0  0  0  0  0  0  0  0  0
    2.4459   -6.5427   33.1242 C   0  0  0  0  0  0  0  0  0  0  0  0
    1.0390   -6.3160   33.4625 N   0  0  0  0  0  0  0  0  0  0  0  0
    0.9935   -5.8107   34.3474 H   0  0  0  0  0  0  0  0  0  0  0  0
    0.2813   -7.5630   33.5954 C   0  0  0  0  0  0  0  0  0  0  0  0
   -3.3022   -7.0660   32.3711 C   0  0  0  0  0  0  0  0  0  0  0  0
   -3.2363   -7.6684   31.1126 C   0  0  0  0  0  0  0  0  0  0  0  0
   -2.0466   -8.2355   30.6565 C   0  0  0  0  0  0  0  0  0  0  0  0
   -0.9097   -8.2034   31.4610 C   0  0  0  0  0  0  0  0  0  0  0  0
   -0.9557   -7.6067   32.7296 C   0  0  0  0  0  0  0  0  0  0  0  0
   -2.1608   -7.0359   33.1755 C   0  0  0  0  0  0  0  0  0  0  0  0
   -4.5419   -5.3195   33.4050 C   0  0  0  0  0  0  0  0  0  0  0  0
   -4.5269   -6.5475   32.6896 O   0  0  0  0  0  0  0  0  0  0  0  0
    3.2127   -6.9698   29.4153 C   0  0  0  0  0  0  0  0  0  0  0  0
    3.9362   -5.8581   28.6915 C   0  0  0  0  0  0  0  0  0  0  0  0
    3.2302   -5.0067   27.8276 C   0  0  0  0  0  0  0  0  0  0  0  0
    3.8916   -3.9855   27.1445 C   0  0  0  0  0  0  0  0  0  0  0  0
    5.2594   -3.8180   27.3188 C   0  0  0  0  0  0  0  0  0  0  0  0
    5.8950   -2.8410   26.6579 F   0  0  0  0  0  0  0  0  0  0  0  0
    5.9793   -4.6562   28.1599 C   0  0  0  0  0  0  0  0  0  0  0  0
    5.3203   -5.6798   28.8430 C   0  0  0  0  0  0  0  0  0  0  0  0
 43 44  1  0
 44 37  1  0
 37 38  2  0
 38 39  1  0
 39 40  2  0
 40 41  1  0
 41 36  1  0
 36 34  1  0
 34 33  1  0
 33 30  1  0
 30 31  1  0
 30 29  1  0
 29 45  1  0
 45 46  1  0
 46 47  2  0
 47 48  1  0
 48 49  2  0
 49 50  1  0
 49 51  1  0
 51 52  2  0
 29  1  1  0
  1  2  1  0
  2  3  2  0
  2  5  1  0
  5  6  2  0
  6  7  1  0
  7 11  1  0
 11 12  2  0
 11 13  1  0
 13 15  1  0
 15 16  1  0
 15 17  1  0
 17 18  2  0
 18 19  1  0
 19 20  2  0
 20 21  1  0
 21 22  2  0
  7  8  2  0
  8  9  1  0
  9 23  1  0
 23 24  1  0
 23 25  1  0
 25 26  1  0
 25 27  2  0
 25 28  2  0
  9 10  2  0
 41 42  2  0
 42 37  1  0
 52 46  1  0
 10  5  1  0
 22 17  1  0
 34 35  1  0
 31 32  1  0
  1  4  1  0
 13 14  1  0
M  END
> <minimizedAffinity>
-10.02593

> <CNNscore>
0.4190231562

> <CNNaffinity>
6.8675627708

> <CNN_VS>
2.8776679039

> <CNNaffinity_variance>
2.1557843685

$$$$



 52 55  0  0  0  0  0  0  0  0999 V2000
    0.8558   -5.3814   32.2878 N   0  0  0  0  0  0  0  0  0  0  0  0
    0.7454   -5.4005   30.9179 C   0  0  0  0  0  0  0  0  0  0  0  0
    1.3700   -6.1789   30.2069 O   0  0  0  0  0  0  0  0  0  0  0  0
    0.3394   -4.7147   32.7957 H   0  0  0  0  0  0  0  0  0  0  0  0
   -0.1832   -4.4154   30.3170 C   0  0  0  0  0  0  0  0  0  0  0  0
   -1.4660   -4.2908   30.8555 C   0  0  0  0  0  0  0  0  0  0  0  0
   -2.3610   -3.3640   30.3108 C   0  0  0  0  0  0  0  0  0  0  0  0
   -1.9811   -2.5825   29.2130 C   0  0  0  0  0  0  0  0  0  0  0  0
   -0.7009   -2.7202   28.6725 C   0  0  0  0  0  0  0  0  0  0  0  0
    0.2119   -3.6063   29.2473 C   0  0  0  0  0  0  0  0  0  0  0  0
   -3.7190   -3.2652   30.8997 C   0  0  0  0  0  0  0  0  0  0  0  0
   -4.6938   -3.6063   30.2412 O   0  0  0  0  0  0  0  0  0  0  0  0
   -3.7828   -2.8167   32.1996 N   0  0  0  0  0  0  0  0  0  0  0  0
   -2.9626   -2.5002   32.6427 H   0  0  0  0  0  0  0  0  0  0  0  0
   -5.0420   -2.8020   32.9310 C   0  0  0  0  0  0  0  0  0  0  0  0
   -5.5643   -4.2256   33.1468 C   0  0  0  0  0  0  0  0  0  0  0  0
   -6.0175   -1.8826   32.2150 C   0  0  0  0  0  0  0  0  0  0  0  0
   -5.6998   -0.5596   31.8672 C   0  0  0  0  0  0  0  0  0  0  0  0
   -6.6408    0.2578   31.2352 C   0  0  0  0  0  0  0  0  0  0  0  0
   -7.9146   -0.2293   30.9522 C   0  0  0  0  0  0  0  0  0  0  0  0
   -8.2537   -1.5329   31.3091 C   0  0  0  0  0  0  0  0  0  0  0  0
   -7.3139   -2.3513   31.9395 C   0  0  0  0  0  0  0  0  0  0  0  0
   -0.3509   -1.8699   27.5640 N   0  0  0  0  0  0  0  0  0  0  0  0
   -1.2441   -0.6967   27.3841 C   0  0  0  0  0  0  0  0  0  0  0  0
    1.3140   -1.4767   27.4037 S   0  0  0  0  0  0  0  0  0  0  0  0
    1.2710   -0.2476   26.1138 C   0  0  0  0  0  0  0  0  0  0  0  0
    1.7245   -0.8125   28.6242 O   0  0  0  0  0  0  0  0  0  0  0  0
    2.0287   -2.6415   26.9253 O   0  0  0  0  0  0  0  0  0  0  0  0
    1.7184   -6.3220   33.0242 C   0  0  0  0  0  0  0  0  0  0  0  0
    3.2048   -6.2425   32.5563 C   0  0  0  0  0  0  0  0  0  0  0  0
    3.7238   -4.9089   32.7304 O   0  0  0  0  0  0  0  0  0  0  0  0
    3.2447   -4.2971   32.1499 H   0  0  0  0  0  0  0  0  0  0  0  0
    3.4657   -6.6458   31.0874 C   0  0  0  0  0  0  0  0  0  0  0  0
    4.6966   -6.0770   30.5336 N   0  0  0  0  0  0  0  0  0  0  0  0
    4.7881   -5.1155   30.8615 H   0  0  0  0  0  0  0  0  0  0  0  0
    4.7098   -6.0759   29.0685 C   0  0  0  0  0  0  0  0  0  0  0  0
    8.1578   -6.8944   27.6441 C   0  0  0  0  0  0  0  0  0  0  0  0
    8.6425   -5.6124   27.3750 C   0  0  0  0  0  0  0  0  0  0  0  0
    7.8677   -4.4861   27.6511 C   0  0  0  0  0  0  0  0  0  0  0  0
    6.5967   -4.6365   28.2013 C   0  0  0  0  0  0  0  0  0  0  0  0
    6.0927   -5.9149   28.4826 C   0  0  0  0  0  0  0  0  0  0  0  0
    6.8834   -7.0418   28.1961 C   0  0  0  0  0  0  0  0  0  0  0  0
    9.9339   -8.3213   28.3264 C   0  0  0  0  0  0  0  0  0  0  0  0
    9.0185   -7.9069   27.3213 O   0  0  0  0  0  0  0  0  0  0  0  0
    1.0911   -7.7318   32.9751 C   0  0  0  0  0  0  0  0  0  0  0  0
   -0.3821   -7.7789   32.6426 C   0  0  0  0  0  0  0  0  0  0  0  0
   -0.8185   -8.4276   31.4771 C   0  0  0  0  0  0  0  0  0  0  0  0
   -2.1756   -8.4651   31.1545 C   0  0  0  0  0  0  0  0  0  0  0  0
   -3.0967   -7.8494   31.9923 C   0  0  0  0  0  0  0  0  0  0  0  0
   -4.3990   -7.8806   31.6788 F   0  0  0  0  0  0  0  0  0  0  0  0
   -2.6855   -7.1922   33.1443 C   0  0  0  0  0  0  0  0  0  0  0  0
   -1.3283   -7.1516   33.4684 C   0  0  0  0  0  0  0  0  0  0  0  0
 43 44  1  0
 44 37  1  0
 37 38  2  0
 38 39  1  0
 39 40  2  0
 40 41  1  0
 41 36  1  0
 36 34  1  0
 34 33  1  0
 33 30  1  0
 30 31  1  0
 30 29  1  0
 29 45  1  0
 45 46  1  0
 46 47  2  0
 47 48  1  0
 48 49  2  0
 49 50  1  0
 49 51  1  0
 51 52  2  0
 29  1  1  0
  1  2  1  0
  2  3  2  0
  2  5  1  0
  5  6  2  0
  6  7  1  0
  7 11  1  0
 11 12  2  0
 11 13  1  0
 13 15  1  0
 15 16  1  0
 15 17  1  0
 17 18  2  0
 18 19  1  0
 19 20  2  0
 20 21  1  0
 21 22  2  0
  7  8  2  0
  8  9  1  0
  9 23  1  0
 23 24  1  0
 23 25  1  0
 25 26  1  0
 25 27  2  0
 25 28  2  0
  9 10  2  0
 41 42  2  0
 42 37  1  0
 52 46  1  0
 10  5  1  0
 22 17  1  0
 34 35  1  0
 31 32  1  0
  1  4  1  0
 13 14  1  0
M  END
> <minimizedAffinity>
-9.43337

> <CNNscore>
0.3075835705

> <CNNaffinity>
7.0093989372

> <CNN_VS>
2.1559760571

> <CNNaffinity_variance>
1.3685649633

$$$$
