


 30 32  0  0  0  0  0  0  0  0999 V2000
   12.7954   53.6397   89.1500 C   0  0  0  0  0  0  0  0  0  0  0  0
   13.7670   54.0948   89.7527 O   0  0  0  0  0  0  0  0  0  0  0  0
   12.7385   53.5531   87.7775 N   0  0  0  0  0  0  0  0  0  0  0  0
   11.9683   53.0980   87.3667 H   0  0  0  0  0  0  0  0  0  0  0  0
    9.3359   53.4103   90.4796 C   0  0  0  0  0  0  0  0  0  0  0  0
   10.3135   53.5124   89.3176 C   0  0  0  0  0  0  0  0  0  0  0  0
   11.6265   52.9594   89.8886 C   0  0  0  0  0  0  0  0  0  0  0  0
   11.5455   53.2452   91.3335 N   0  0  0  0  0  0  0  0  0  0  0  0
   12.4646   52.6854   92.2049 C   0  0  0  0  0  0  0  0  0  0  0  0
   13.4572   52.0977   91.7839 O   0  0  0  0  0  0  0  0  0  0  0  0
   10.2186   53.7437   91.6869 C   0  0  0  0  0  0  0  0  0  0  0  0
    7.9951   51.8238   91.6434 C   0  0  0  0  0  0  0  0  0  0  0  0
    8.8520   52.0641   90.5348 O   0  0  0  0  0  0  0  0  0  0  0  0
   12.1839   52.8823   93.6929 C   0  0  0  0  0  0  0  0  0  0  0  0
   12.8362   54.1056   94.3866 C   0  0  0  0  0  0  0  0  0  0  0  0
   13.7724   53.6686   95.5263 C   0  0  0  0  0  0  0  0  0  0  0  0
   11.7804   55.0906   94.9186 C   0  0  0  0  0  0  0  0  0  0  0  0
   13.6845   54.8461   93.3289 C   0  0  0  0  0  0  0  0  0  0  0  0
   13.7556   54.0986   86.9149 C   0  0  0  0  0  0  0  0  0  0  0  0
   13.8740   53.2614   85.6677 C   0  0  0  0  0  0  0  0  0  0  0  0
   12.8942   52.3205   85.3303 C   0  0  0  0  0  0  0  0  0  0  0  0
   13.0316   51.5332   84.1803 C   0  0  0  0  0  0  0  0  0  0  0  0
   14.1520   51.6630   83.3454 C   0  0  0  0  0  0  0  0  0  0  0  0
   15.1334   52.6022   83.6952 C   0  0  0  0  0  0  0  0  0  0  0  0
   14.9986   53.3900   84.8429 C   0  0  0  0  0  0  0  0  0  0  0  0
   14.2832   50.8416   82.1489 C   0  0  0  0  0  0  0  0  0  0  0  0
   15.2373   50.6666   81.1673 C   0  0  0  0  0  0  0  0  0  0  0  0
   14.8217   49.7284   80.2536 N   0  0  0  0  0  0  0  0  0  0  0  0
   13.6429   49.3682   80.7071 C   0  0  0  0  0  0  0  0  0  0  0  0
   13.2426   49.9971   81.8452 O   0  0  0  0  0  0  0  0  0  0  0  0
 12 13  1  0
  5 13  1  0
  5  6  1  0
  6  7  1  0
  7  1  1  0
  1  2  2  0
  1  3  1  0
  3 19  1  0
 19 20  1  0
 20 21  2  0
 21 22  1  0
 22 23  2  0
 23 26  1  0
 26 27  2  0
 27 28  1  0
 28 29  2  0
 29 30  1  0
 23 24  1  0
 24 25  2  0
  7  8  1  0
  8  9  1  0
  9 10  2  0
  9 14  1  0
 14 15  1  0
 15 16  1  0
 15 17  1  0
 15 18  1  0
  8 11  1  0
 11  5  1  0
 25 20  1  0
 30 26  1  0
  3  4  1  0
M  END
> <minimizedAffinity>
-7.14872

> <CNNscore>
0.7053726315

> <CNNaffinity>
5.9902291298

> <CNN_VS>
4.2253437042

> <CNNaffinity_variance>
0.1697334647

$$$$



 30 32  0  0  0  0  0  0  0  0999 V2000
   11.8978   52.7135   88.7013 C   0  0  0  0  0  0  0  0  0  0  0  0
   12.3680   51.6154   88.9972 O   0  0  0  0  0  0  0  0  0  0  0  0
   12.4675   53.9031   89.0946 N   0  0  0  0  0  0  0  0  0  0  0  0
   12.0882   54.7431   88.7485 H   0  0  0  0  0  0  0  0  0  0  0  0
    8.6858   51.7170   87.1268 C   0  0  0  0  0  0  0  0  0  0  0  0
    9.4922   52.1846   88.3299 C   0  0  0  0  0  0  0  0  0  0  0  0
   10.7260   52.8555   87.7105 C   0  0  0  0  0  0  0  0  0  0  0  0
   10.9080   52.1650   86.4198 N   0  0  0  0  0  0  0  0  0  0  0  0
   11.8008   52.6626   85.4856 C   0  0  0  0  0  0  0  0  0  0  0  0
   12.5797   53.5667   85.7755 O   0  0  0  0  0  0  0  0  0  0  0  0
    9.7775   51.2820   86.1436 C   0  0  0  0  0  0  0  0  0  0  0  0
    7.3626   52.5972   85.3536 C   0  0  0  0  0  0  0  0  0  0  0  0
    7.9424   52.8350   86.6298 O   0  0  0  0  0  0  0  0  0  0  0  0
   11.7767   51.9943   84.1128 C   0  0  0  0  0  0  0  0  0  0  0  0
   12.9187   50.9988   83.7835 C   0  0  0  0  0  0  0  0  0  0  0  0
   13.0065   49.8807   84.8362 C   0  0  0  0  0  0  0  0  0  0  0  0
   14.2769   51.7105   83.6541 C   0  0  0  0  0  0  0  0  0  0  0  0
   12.5934   50.3476   82.4209 C   0  0  0  0  0  0  0  0  0  0  0  0
   13.5940   53.9743   89.9900 C   0  0  0  0  0  0  0  0  0  0  0  0
   13.1137   54.1675   91.4050 C   0  0  0  0  0  0  0  0  0  0  0  0
   13.9515   54.7073   92.3878 C   0  0  0  0  0  0  0  0  0  0  0  0
   13.4975   54.8576   93.7040 C   0  0  0  0  0  0  0  0  0  0  0  0
   12.2001   54.4671   94.0698 C   0  0  0  0  0  0  0  0  0  0  0  0
   11.3698   53.9193   93.0809 C   0  0  0  0  0  0  0  0  0  0  0  0
   11.8206   53.7683   91.7656 C   0  0  0  0  0  0  0  0  0  0  0  0
   11.7363   54.6317   95.4414 C   0  0  0  0  0  0  0  0  0  0  0  0
   10.6962   54.1365   96.2013 C   0  0  0  0  0  0  0  0  0  0  0  0
   10.7476   54.6444   97.4770 N   0  0  0  0  0  0  0  0  0  0  0  0
   11.8064   55.4210   97.4494 C   0  0  0  0  0  0  0  0  0  0  0  0
   12.4569   55.4719   96.2556 O   0  0  0  0  0  0  0  0  0  0  0  0
 12 13  1  0
  5 13  1  0
  5  6  1  0
  6  7  1  0
  7  1  1  0
  1  2  2  0
  1  3  1  0
  3 19  1  0
 19 20  1  0
 20 21  2  0
 21 22  1  0
 22 23  2  0
 23 26  1  0
 26 27  2  0
 27 28  1  0
 28 29  2  0
 29 30  1  0
 23 24  1  0
 24 25  2  0
  7  8  1  0
  8  9  1  0
  9 10  2  0
  9 14  1  0
 14 15  1  0
 15 16  1  0
 15 17  1  0
 15 18  1  0
  8 11  1  0
 11  5  1  0
 25 20  1  0
 30 26  1  0
  3  4  1  0
M  END
> <minimizedAffinity>
-6.00784

> <CNNscore>
0.5658164024

> <CNNaffinity>
6.0120849609

> <CNN_VS>
3.4017362595

> <CNNaffinity_variance>
0.0419705510

$$$$



 30 32  0  0  0  0  0  0  0  0999 V2000
   13.9484   54.0788   91.8436 C   0  0  0  0  0  0  0  0  0  0  0  0
   14.8993   54.8228   92.0818 O   0  0  0  0  0  0  0  0  0  0  0  0
   13.5302   53.7831   90.5660 N   0  0  0  0  0  0  0  0  0  0  0  0
   12.8196   53.1122   90.4475 H   0  0  0  0  0  0  0  0  0  0  0  0
   11.4737   51.6631   93.1960 C   0  0  0  0  0  0  0  0  0  0  0  0
   12.6789   51.9908   92.3263 C   0  0  0  0  0  0  0  0  0  0  0  0
   13.2524   53.2686   92.9543 C   0  0  0  0  0  0  0  0  0  0  0  0
   12.0865   53.9259   93.5743 N   0  0  0  0  0  0  0  0  0  0  0  0
   12.2677   55.0014   94.4275 C   0  0  0  0  0  0  0  0  0  0  0  0
   13.3662   55.5379   94.5427 O   0  0  0  0  0  0  0  0  0  0  0  0
   10.9173   53.0512   93.5297 C   0  0  0  0  0  0  0  0  0  0  0  0
   12.6698   49.8006   94.0735 C   0  0  0  0  0  0  0  0  0  0  0  0
   11.9431   50.9868   94.3672 O   0  0  0  0  0  0  0  0  0  0  0  0
   11.0233   55.4877   95.1669 C   0  0  0  0  0  0  0  0  0  0  0  0
   11.2304   56.4957   96.3265 C   0  0  0  0  0  0  0  0  0  0  0  0
   11.9638   55.8427   97.5105 C   0  0  0  0  0  0  0  0  0  0  0  0
    9.8980   57.1027   96.8002 C   0  0  0  0  0  0  0  0  0  0  0  0
   12.1126   57.6467   95.7941 C   0  0  0  0  0  0  0  0  0  0  0  0
   14.0856   54.4114   89.3945 C   0  0  0  0  0  0  0  0  0  0  0  0
   13.4705   53.8182   88.1534 C   0  0  0  0  0  0  0  0  0  0  0  0
   12.4630   52.8500   88.2353 C   0  0  0  0  0  0  0  0  0  0  0  0
   11.9189   52.2909   87.0724 C   0  0  0  0  0  0  0  0  0  0  0  0
   12.3722   52.6809   85.8028 C   0  0  0  0  0  0  0  0  0  0  0  0
   13.3880   53.6455   85.7297 C   0  0  0  0  0  0  0  0  0  0  0  0
   13.9329   54.2057   86.8895 C   0  0  0  0  0  0  0  0  0  0  0  0
   11.7964   52.0957   84.5989 C   0  0  0  0  0  0  0  0  0  0  0  0
   11.9938   50.9433   83.8657 C   0  0  0  0  0  0  0  0  0  0  0  0
   11.1392   50.9043   82.7906 N   0  0  0  0  0  0  0  0  0  0  0  0
   10.4580   52.0212   82.9067 C   0  0  0  0  0  0  0  0  0  0  0  0
   10.7974   52.7992   83.9700 O   0  0  0  0  0  0  0  0  0  0  0  0
 12 13  1  0
  5 13  1  0
  5  6  1  0
  6  7  1  0
  7  1  1  0
  1  2  2  0
  1  3  1  0
  3 19  1  0
 19 20  1  0
 20 21  2  0
 21 22  1  0
 22 23  2  0
 23 26  1  0
 26 27  2  0
 27 28  1  0
 28 29  2  0
 29 30  1  0
 23 24  1  0
 24 25  2  0
  7  8  1  0
  8  9  1  0
  9 10  2  0
  9 14  1  0
 14 15  1  0
 15 16  1  0
 15 17  1  0
 15 18  1  0
  8 11  1  0
 11  5  1  0
 25 20  1  0
 30 26  1  0
  3  4  1  0
M  END
> <minimizedAffinity>
-6.61710

> <CNNscore>
0.3683414757

> <CNNaffinity>
5.3703174591

> <CNN_VS>
1.9781106710

> <CNNaffinity_variance>
0.4087679386

$$$$



 30 32  0  0  0  0  0  0  0  0999 V2000
   12.9815   51.4464   93.2546 C   0  0  0  0  0  0  0  0  0  0  0  0
   13.1055   50.2220   93.2590 O   0  0  0  0  0  0  0  0  0  0  0  0
   12.6853   52.1735   94.3852 N   0  0  0  0  0  0  0  0  0  0  0  0
   12.6877   53.1562   94.3261 H   0  0  0  0  0  0  0  0  0  0  0  0
   13.5721   54.6092   91.4008 C   0  0  0  0  0  0  0  0  0  0  0  0
   13.9409   53.6151   92.4927 C   0  0  0  0  0  0  0  0  0  0  0  0
   13.3244   52.2935   92.0139 C   0  0  0  0  0  0  0  0  0  0  0  0
   12.1682   52.7052   91.1956 N   0  0  0  0  0  0  0  0  0  0  0  0
   11.5022   51.7743   90.4161 C   0  0  0  0  0  0  0  0  0  0  0  0
   11.7385   50.5742   90.5256 O   0  0  0  0  0  0  0  0  0  0  0  0
   12.1667   54.1523   90.9961 C   0  0  0  0  0  0  0  0  0  0  0  0
   15.4057   55.5508   90.2088 C   0  0  0  0  0  0  0  0  0  0  0  0
   14.5069   54.4556   90.3275 O   0  0  0  0  0  0  0  0  0  0  0  0
   10.4476   52.3303   89.4620 C   0  0  0  0  0  0  0  0  0  0  0  0
   10.7396   52.2365   87.9423 C   0  0  0  0  0  0  0  0  0  0  0  0
   10.5005   50.8118   87.4139 C   0  0  0  0  0  0  0  0  0  0  0  0
   12.1710   52.6911   87.6068 C   0  0  0  0  0  0  0  0  0  0  0  0
    9.7592   53.1856   87.2180 C   0  0  0  0  0  0  0  0  0  0  0  0
   12.3719   51.5610   95.6511 C   0  0  0  0  0  0  0  0  0  0  0  0
   13.5455   51.6882   96.5874 C   0  0  0  0  0  0  0  0  0  0  0  0
   13.3813   52.1563   97.8964 C   0  0  0  0  0  0  0  0  0  0  0  0
   14.4861   52.2917   98.7461 C   0  0  0  0  0  0  0  0  0  0  0  0
   15.7793   51.9690   98.3069 C   0  0  0  0  0  0  0  0  0  0  0  0
   15.9363   51.5087   96.9912 C   0  0  0  0  0  0  0  0  0  0  0  0
   14.8346   51.3723   96.1405 C   0  0  0  0  0  0  0  0  0  0  0  0
   16.9216   52.1097   99.2007 C   0  0  0  0  0  0  0  0  0  0  0  0
   17.1110   52.1507  100.5670 C   0  0  0  0  0  0  0  0  0  0  0  0
   18.4443   52.2990  100.8641 N   0  0  0  0  0  0  0  0  0  0  0  0
   19.0134   52.3410   99.6812 C   0  0  0  0  0  0  0  0  0  0  0  0
   18.1626   52.2378   98.6246 O   0  0  0  0  0  0  0  0  0  0  0  0
 12 13  1  0
  5 13  1  0
  5  6  1  0
  6  7  1  0
  7  1  1  0
  1  2  2  0
  1  3  1  0
  3 19  1  0
 19 20  1  0
 20 21  2  0
 21 22  1  0
 22 23  2  0
 23 26  1  0
 26 27  2  0
 27 28  1  0
 28 29  2  0
 29 30  1  0
 23 24  1  0
 24 25  2  0
  7  8  1  0
  8  9  1  0
  9 10  2  0
  9 14  1  0
 14 15  1  0
 15 16  1  0
 15 17  1  0
 15 18  1  0
  8 11  1  0
 11  5  1  0
 25 20  1  0
 30 26  1  0
  3  4  1  0
M  END
> <minimizedAffinity>
-5.07821

> <CNNscore>
0.3156991303

> <CNNaffinity>
4.5237197876

> <CNN_VS>
1.4281344414

> <CNNaffinity_variance>
0.7802302837

$$$$



 30 32  0  0  0  0  0  0  0  0999 V2000
   12.9023   53.1761   86.2683 C   0  0  0  0  0  0  0  0  0  0  0  0
   12.5286   54.1665   85.6408 O   0  0  0  0  0  0  0  0  0  0  0  0
   13.5240   53.2561   87.4937 N   0  0  0  0  0  0  0  0  0  0  0  0
   13.7165   52.4212   87.9786 H   0  0  0  0  0  0  0  0  0  0  0  0
   12.0487   50.5454   83.7903 C   0  0  0  0  0  0  0  0  0  0  0  0
   13.0145   51.5706   84.3672 C   0  0  0  0  0  0  0  0  0  0  0  0
   12.5452   51.7462   85.8180 C   0  0  0  0  0  0  0  0  0  0  0  0
   11.1021   51.4438   85.7741 N   0  0  0  0  0  0  0  0  0  0  0  0
   10.3893   51.2861   86.9508 C   0  0  0  0  0  0  0  0  0  0  0  0
   10.8909   51.5685   88.0356 O   0  0  0  0  0  0  0  0  0  0  0  0
   10.7244   50.9208   84.4635 C   0  0  0  0  0  0  0  0  0  0  0  0
   11.4934   48.2440   84.0448 C   0  0  0  0  0  0  0  0  0  0  0  0
   12.4935   49.2443   84.1887 O   0  0  0  0  0  0  0  0  0  0  0  0
    8.9539   50.7865   86.8035 C   0  0  0  0  0  0  0  0  0  0  0  0
    7.8196   51.8403   86.8838 C   0  0  0  0  0  0  0  0  0  0  0  0
    7.7927   52.7293   85.6287 C   0  0  0  0  0  0  0  0  0  0  0  0
    7.9384   52.7120   88.1463 C   0  0  0  0  0  0  0  0  0  0  0  0
    6.4777   51.0785   86.9586 C   0  0  0  0  0  0  0  0  0  0  0  0
   13.9056   54.5068   88.0987 C   0  0  0  0  0  0  0  0  0  0  0  0
   13.6350   54.4641   89.5803 C   0  0  0  0  0  0  0  0  0  0  0  0
   12.4122   54.0022   90.0810 C   0  0  0  0  0  0  0  0  0  0  0  0
   12.1675   53.9919   91.4598 C   0  0  0  0  0  0  0  0  0  0  0  0
   13.1349   54.4476   92.3687 C   0  0  0  0  0  0  0  0  0  0  0  0
   14.3543   54.9167   91.8583 C   0  0  0  0  0  0  0  0  0  0  0  0
   14.6014   54.9278   90.4818 C   0  0  0  0  0  0  0  0  0  0  0  0
   12.8716   54.4287   93.8018 C   0  0  0  0  0  0  0  0  0  0  0  0
   13.6345   54.3322   94.9478 C   0  0  0  0  0  0  0  0  0  0  0  0
   12.8341   54.3724   96.0638 N   0  0  0  0  0  0  0  0  0  0  0  0
   11.6257   54.4924   95.5635 C   0  0  0  0  0  0  0  0  0  0  0  0
   11.5618   54.5292   94.2050 O   0  0  0  0  0  0  0  0  0  0  0  0
 12 13  1  0
  5 13  1  0
  5  6  1  0
  6  7  1  0
  7  1  1  0
  1  2  2  0
  1  3  1  0
  3 19  1  0
 19 20  1  0
 20 21  2  0
 21 22  1  0
 22 23  2  0
 23 26  1  0
 26 27  2  0
 27 28  1  0
 28 29  2  0
 29 30  1  0
 23 24  1  0
 24 25  2  0
  7  8  1  0
  8  9  1  0
  9 10  2  0
  9 14  1  0
 14 15  1  0
 15 16  1  0
 15 17  1  0
 15 18  1  0
  8 11  1  0
 11  5  1  0
 25 20  1  0
 30 26  1  0
  3  4  1  0
M  END
> <minimizedAffinity>
-5.29468

> <CNNscore>
0.2697087526

> <CNNaffinity>
5.5134391785

> <CNN_VS>
1.4870227575

> <CNNaffinity_variance>
0.1773742288

$$$$



 30 32  0  0  0  0  0  0  0  0999 V2000
   12.4117   53.1218   90.7205 C   0  0  0  0  0  0  0  0  0  0  0  0
   12.3531   54.3486   90.6431 O   0  0  0  0  0  0  0  0  0  0  0  0
   11.8815   52.2846   89.7653 N   0  0  0  0  0  0  0  0  0  0  0  0
   12.0418   51.3167   89.8472 H   0  0  0  0  0  0  0  0  0  0  0  0
   13.0877   50.5067   93.2688 C   0  0  0  0  0  0  0  0  0  0  0  0
   12.8445   50.9331   91.8281 C   0  0  0  0  0  0  0  0  0  0  0  0
   13.2439   52.4150   91.8080 C   0  0  0  0  0  0  0  0  0  0  0  0
   12.9982   52.8782   93.1868 N   0  0  0  0  0  0  0  0  0  0  0  0
   13.4583   54.1188   93.5952 C   0  0  0  0  0  0  0  0  0  0  0  0
   13.9121   54.9221   92.7848 O   0  0  0  0  0  0  0  0  0  0  0  0
   12.6725   51.7523   94.0587 C   0  0  0  0  0  0  0  0  0  0  0  0
   14.9245   50.2930   94.7688 C   0  0  0  0  0  0  0  0  0  0  0  0
   14.4838   50.2274   93.4187 O   0  0  0  0  0  0  0  0  0  0  0  0
   13.3260   54.4258   95.0851 C   0  0  0  0  0  0  0  0  0  0  0  0
   12.0792   55.2266   95.5410 C   0  0  0  0  0  0  0  0  0  0  0  0
   10.8302   54.8199   94.7405 C   0  0  0  0  0  0  0  0  0  0  0  0
   12.3048   56.7449   95.4328 C   0  0  0  0  0  0  0  0  0  0  0  0
   11.8247   54.8902   97.0271 C   0  0  0  0  0  0  0  0  0  0  0  0
   11.1024   52.7610   88.6509 C   0  0  0  0  0  0  0  0  0  0  0  0
   11.7785   52.3907   87.3562 C   0  0  0  0  0  0  0  0  0  0  0  0
   11.6267   51.1162   86.7977 C   0  0  0  0  0  0  0  0  0  0  0  0
   12.2816   50.7801   85.6064 C   0  0  0  0  0  0  0  0  0  0  0  0
   13.1068   51.7059   84.9496 C   0  0  0  0  0  0  0  0  0  0  0  0
   13.2602   52.9781   85.5203 C   0  0  0  0  0  0  0  0  0  0  0  0
   12.6072   53.3164   86.7098 C   0  0  0  0  0  0  0  0  0  0  0  0
   13.7804   51.3473   83.7082 C   0  0  0  0  0  0  0  0  0  0  0  0
   13.4758   50.5810   82.6016 C   0  0  0  0  0  0  0  0  0  0  0  0
   14.5145   50.5994   81.7024 N   0  0  0  0  0  0  0  0  0  0  0  0
   15.4044   51.3691   82.2861 C   0  0  0  0  0  0  0  0  0  0  0  0
   15.0397   51.8573   83.5025 O   0  0  0  0  0  0  0  0  0  0  0  0
 12 13  1  0
  5 13  1  0
  5  6  1  0
  6  7  1  0
  7  1  1  0
  1  2  2  0
  1  3  1  0
  3 19  1  0
 19 20  1  0
 20 21  2  0
 21 22  1  0
 22 23  2  0
 23 26  1  0
 26 27  2  0
 27 28  1  0
 28 29  2  0
 29 30  1  0
 23 24  1  0
 24 25  2  0
  7  8  1  0
  8  9  1  0
  9 10  2  0
  9 14  1  0
 14 15  1  0
 15 16  1  0
 15 17  1  0
 15 18  1  0
  8 11  1  0
 11  5  1  0
 25 20  1  0
 30 26  1  0
  3  4  1  0
M  END
> <minimizedAffinity>
-6.35322

> <CNNscore>
0.2664912045

> <CNNaffinity>
4.9004173279

> <CNN_VS>
1.3059180975

> <CNNaffinity_variance>
0.5681192279

$$$$



 30 32  0  0  0  0  0  0  0  0999 V2000
   13.6027   53.7679   93.4522 C   0  0  0  0  0  0  0  0  0  0  0  0
   13.8594   52.7841   94.1455 O   0  0  0  0  0  0  0  0  0  0  0  0
   13.3425   55.0110   93.9827 N   0  0  0  0  0  0  0  0  0  0  0  0
   13.2319   55.7712   93.3669 H   0  0  0  0  0  0  0  0  0  0  0  0
   14.0615   55.2588   90.0824 C   0  0  0  0  0  0  0  0  0  0  0  0
   14.5740   54.9371   91.4789 C   0  0  0  0  0  0  0  0  0  0  0  0
   13.7265   53.7345   91.9165 C   0  0  0  0  0  0  0  0  0  0  0  0
   12.4580   53.8945   91.1808 N   0  0  0  0  0  0  0  0  0  0  0  0
   11.5319   52.8652   91.1609 C   0  0  0  0  0  0  0  0  0  0  0  0
   11.6607   51.8857   91.8903 O   0  0  0  0  0  0  0  0  0  0  0  0
   12.5603   54.9781   90.2063 C   0  0  0  0  0  0  0  0  0  0  0  0
   13.9882   54.2379   87.9325 C   0  0  0  0  0  0  0  0  0  0  0  0
   14.6921   54.3622   89.1614 O   0  0  0  0  0  0  0  0  0  0  0  0
   10.3443   53.0499   90.2191 C   0  0  0  0  0  0  0  0  0  0  0  0
   10.3268   52.2062   88.9185 C   0  0  0  0  0  0  0  0  0  0  0  0
   11.6812   51.5165   88.6813 C   0  0  0  0  0  0  0  0  0  0  0  0
    9.9439   53.0542   87.6929 C   0  0  0  0  0  0  0  0  0  0  0  0
    9.2542   51.1073   89.0880 C   0  0  0  0  0  0  0  0  0  0  0  0
   13.2248   55.2499   95.3987 C   0  0  0  0  0  0  0  0  0  0  0  0
   11.9280   55.9581   95.6937 C   0  0  0  0  0  0  0  0  0  0  0  0
   11.9006   57.3247   95.9956 C   0  0  0  0  0  0  0  0  0  0  0  0
   10.6896   57.9626   96.2915 C   0  0  0  0  0  0  0  0  0  0  0  0
    9.4805   57.2502   96.2986 C   0  0  0  0  0  0  0  0  0  0  0  0
    9.5178   55.8794   96.0034 C   0  0  0  0  0  0  0  0  0  0  0  0
   10.7258   55.2398   95.7073 C   0  0  0  0  0  0  0  0  0  0  0  0
    8.2254   57.9246   96.6039 C   0  0  0  0  0  0  0  0  0  0  0  0
    7.3591   58.7587   95.9269 C   0  0  0  0  0  0  0  0  0  0  0  0
    6.2950   59.0994   96.7267 N   0  0  0  0  0  0  0  0  0  0  0  0
    6.5476   58.4664   97.8494 C   0  0  0  0  0  0  0  0  0  0  0  0
    7.6968   57.7381   97.8584 O   0  0  0  0  0  0  0  0  0  0  0  0
 12 13  1  0
  5 13  1  0
  5  6  1  0
  6  7  1  0
  7  1  1  0
  1  2  2  0
  1  3  1  0
  3 19  1  0
 19 20  1  0
 20 21  2  0
 21 22  1  0
 22 23  2  0
 23 26  1  0
 26 27  2  0
 27 28  1  0
 28 29  2  0
 29 30  1  0
 23 24  1  0
 24 25  2  0
  7  8  1  0
  8  9  1  0
  9 10  2  0
  9 14  1  0
 14 15  1  0
 15 16  1  0
 15 17  1  0
 15 18  1  0
  8 11  1  0
 11  5  1  0
 25 20  1  0
 30 26  1  0
  3  4  1  0
M  END
> <minimizedAffinity>
-6.64673

> <CNNscore>
0.2474308014

> <CNNaffinity>
4.9138054848

> <CNN_VS>
1.2158268690

> <CNNaffinity_variance>
0.5355686545

$$$$



 30 32  0  0  0  0  0  0  0  0999 V2000
   13.0777   53.2791   86.1545 C   0  0  0  0  0  0  0  0  0  0  0  0
   13.9837   53.6314   85.3998 O   0  0  0  0  0  0  0  0  0  0  0  0
   13.0176   53.6520   87.4781 N   0  0  0  0  0  0  0  0  0  0  0  0
   12.2196   53.4067   87.9998 H   0  0  0  0  0  0  0  0  0  0  0  0
    9.8869   51.4129   86.5076 C   0  0  0  0  0  0  0  0  0  0  0  0
   10.7209   52.6734   86.6863 C   0  0  0  0  0  0  0  0  0  0  0  0
   11.8321   52.5341   85.6367 C   0  0  0  0  0  0  0  0  0  0  0  0
   11.9959   51.0778   85.4693 N   0  0  0  0  0  0  0  0  0  0  0  0
   12.7653   50.5801   84.4311 C   0  0  0  0  0  0  0  0  0  0  0  0
   13.4633   51.3253   83.7489 O   0  0  0  0  0  0  0  0  0  0  0  0
   10.9478   50.3552   86.1858 C   0  0  0  0  0  0  0  0  0  0  0  0
    8.2302   52.8125   85.5249 C   0  0  0  0  0  0  0  0  0  0  0  0
    8.9981   51.6221   85.4050 O   0  0  0  0  0  0  0  0  0  0  0  0
   12.7168   49.0677   84.2258 C   0  0  0  0  0  0  0  0  0  0  0  0
   11.8984   48.5367   83.0210 C   0  0  0  0  0  0  0  0  0  0  0  0
   11.5398   47.0516   83.1998 C   0  0  0  0  0  0  0  0  0  0  0  0
   12.6421   48.7440   81.6898 C   0  0  0  0  0  0  0  0  0  0  0  0
   10.5816   49.3421   82.9584 C   0  0  0  0  0  0  0  0  0  0  0  0
   14.0701   54.3851   88.1344 C   0  0  0  0  0  0  0  0  0  0  0  0
   13.8317   54.4046   89.6220 C   0  0  0  0  0  0  0  0  0  0  0  0
   12.6148   53.9783   90.1669 C   0  0  0  0  0  0  0  0  0  0  0  0
   12.4005   54.0259   91.5500 C   0  0  0  0  0  0  0  0  0  0  0  0
   13.3928   54.5051   92.4189 C   0  0  0  0  0  0  0  0  0  0  0  0
   14.6061   54.9382   91.8641 C   0  0  0  0  0  0  0  0  0  0  0  0
   14.8230   54.8916   90.4832 C   0  0  0  0  0  0  0  0  0  0  0  0
   13.1609   54.5465   93.8569 C   0  0  0  0  0  0  0  0  0  0  0  0
   12.8265   55.5176   94.7787 C   0  0  0  0  0  0  0  0  0  0  0  0
   12.7322   54.9746   96.0374 N   0  0  0  0  0  0  0  0  0  0  0  0
   13.0078   53.7059   95.8393 C   0  0  0  0  0  0  0  0  0  0  0  0
   13.2825   53.3666   94.5507 O   0  0  0  0  0  0  0  0  0  0  0  0
 12 13  1  0
  5 13  1  0
  5  6  1  0
  6  7  1  0
  7  1  1  0
  1  2  2  0
  1  3  1  0
  3 19  1  0
 19 20  1  0
 20 21  2  0
 21 22  1  0
 22 23  2  0
 23 26  1  0
 26 27  2  0
 27 28  1  0
 28 29  2  0
 29 30  1  0
 23 24  1  0
 24 25  2  0
  7  8  1  0
  8  9  1  0
  9 10  2  0
  9 14  1  0
 14 15  1  0
 15 16  1  0
 15 17  1  0
 15 18  1  0
  8 11  1  0
 11  5  1  0
 25 20  1  0
 30 26  1  0
  3  4  1  0
M  END
> <minimizedAffinity>
-6.67519

> <CNNscore>
0.2366994470

> <CNNaffinity>
5.1891331673

> <CNN_VS>
1.2282649279

> <CNNaffinity_variance>
0.4681123197

$$$$



 30 32  0  0  0  0  0  0  0  0999 V2000
    8.9226   52.6323   84.0154 C   0  0  0  0  0  0  0  0  0  0  0  0
    9.1761   53.8268   83.8626 O   0  0  0  0  0  0  0  0  0  0  0  0
    9.5148   51.6392   83.2686 N   0  0  0  0  0  0  0  0  0  0  0  0
    9.3309   50.7011   83.5039 H   0  0  0  0  0  0  0  0  0  0  0  0
    6.2176   52.8910   86.5462 C   0  0  0  0  0  0  0  0  0  0  0  0
    6.6897   52.8355   85.1003 C   0  0  0  0  0  0  0  0  0  0  0  0
    8.0501   52.1294   85.1818 C   0  0  0  0  0  0  0  0  0  0  0  0
    8.5524   52.4587   86.5291 N   0  0  0  0  0  0  0  0  0  0  0  0
    9.6632   51.8049   87.0353 C   0  0  0  0  0  0  0  0  0  0  0  0
   10.3511   51.0820   86.3196 O   0  0  0  0  0  0  0  0  0  0  0  0
    7.5217   53.1353   87.3126 C   0  0  0  0  0  0  0  0  0  0  0  0
    4.6357   51.7060   87.8739 C   0  0  0  0  0  0  0  0  0  0  0  0
    5.6425   51.6215   86.8737 O   0  0  0  0  0  0  0  0  0  0  0  0
    9.9882   52.0733   88.5029 C   0  0  0  0  0  0  0  0  0  0  0  0
   11.4747   51.9806   88.9334 C   0  0  0  0  0  0  0  0  0  0  0  0
   11.9949   50.5361   88.8391 C   0  0  0  0  0  0  0  0  0  0  0  0
   11.6929   52.5291   90.3545 C   0  0  0  0  0  0  0  0  0  0  0  0
   12.2993   52.8500   87.9583 C   0  0  0  0  0  0  0  0  0  0  0  0
   10.3916   51.9109   82.1581 C   0  0  0  0  0  0  0  0  0  0  0  0
   10.9701   50.6223   81.6336 C   0  0  0  0  0  0  0  0  0  0  0  0
   11.7923   49.8186   82.4320 C   0  0  0  0  0  0  0  0  0  0  0  0
   12.3418   48.6362   81.9212 C   0  0  0  0  0  0  0  0  0  0  0  0
   12.0881   48.2328   80.6012 C   0  0  0  0  0  0  0  0  0  0  0  0
   11.2702   49.0482   79.8051 C   0  0  0  0  0  0  0  0  0  0  0  0
   10.7199   50.2294   80.3128 C   0  0  0  0  0  0  0  0  0  0  0  0
   12.6617   46.9984   80.0809 C   0  0  0  0  0  0  0  0  0  0  0  0
   13.3311   46.6238   78.9337 C   0  0  0  0  0  0  0  0  0  0  0  0
   13.6531   45.2888   78.9783 N   0  0  0  0  0  0  0  0  0  0  0  0
   13.1749   44.9025   80.1389 C   0  0  0  0  0  0  0  0  0  0  0  0
   12.5573   45.8740   80.8639 O   0  0  0  0  0  0  0  0  0  0  0  0
 12 13  1  0
  5 13  1  0
  5  6  1  0
  6  7  1  0
  7  1  1  0
  1  2  2  0
  1  3  1  0
  3 19  1  0
 19 20  1  0
 20 21  2  0
 21 22  1  0
 22 23  2  0
 23 26  1  0
 26 27  2  0
 27 28  1  0
 28 29  2  0
 29 30  1  0
 23 24  1  0
 24 25  2  0
  7  8  1  0
  8  9  1  0
  9 10  2  0
  9 14  1  0
 14 15  1  0
 15 16  1  0
 15 17  1  0
 15 18  1  0
  8 11  1  0
 11  5  1  0
 25 20  1  0
 30 26  1  0
  3  4  1  0
M  END
> <minimizedAffinity>
-5.13921

> <CNNscore>
0.1961846203

> <CNNaffinity>
4.3929843903

> <CNN_VS>
0.8618359566

> <CNNaffinity_variance>
0.3654678166

$$$$
