


 41 45  0  0  0  0  0  0  0  0999 V2000
    5.7333   28.6661   55.8694 C   0  0  0  0  0  0  0  0  0  0  0  0
    4.3664   28.6968   55.6620 C   0  0  0  0  0  0  0  0  0  0  0  0
    4.1189   27.8385   54.5681 C   0  0  0  0  0  0  0  0  0  0  0  0
    5.2735   27.3277   54.1047 N   0  0  0  0  0  0  0  0  0  0  0  0
    6.2586   27.9552   54.8021 N   0  0  0  0  0  0  0  0  0  0  0  0
    7.6150   27.8119   54.3715 C   0  0  0  0  0  0  0  0  0  0  0  0
    8.4980   27.0442   55.1575 C   0  0  0  0  0  0  0  0  0  0  0  0
    9.8446   26.8773   54.8054 C   0  0  0  0  0  0  0  0  0  0  0  0
   10.2544   27.4999   53.6319 C   0  0  0  0  0  0  0  0  0  0  0  0
   11.5066   27.4794   53.1042 O   0  0  0  0  0  0  0  0  0  0  0  0
   11.5227   28.2073   51.9249 N   0  0  0  0  0  0  0  0  0  0  0  0
   10.2759   28.6516   51.7540 C   0  0  0  0  0  0  0  0  0  0  0  0
    9.8717   29.3998   50.7078 N   0  0  0  0  0  0  0  0  0  0  0  0
    9.4241   28.2397   52.8115 C   0  0  0  0  0  0  0  0  0  0  0  0
    8.0692   28.3942   53.1717 C   0  0  0  0  0  0  0  0  0  0  0  0
   10.5141   29.6522   50.0058 H   0  0  0  0  0  0  0  0  0  0  0  0
    8.9342   29.6937   50.6458 H   0  0  0  0  0  0  0  0  0  0  0  0
    6.5672   30.6413   56.8512 N   0  0  0  0  0  0  0  0  0  0  0  0
    6.4448   29.2712   56.9665 C   0  0  0  0  0  0  0  0  0  0  0  0
    6.9098   28.5934   57.8736 O   0  0  0  0  0  0  0  0  0  0  0  0
    6.2106   31.0394   56.0244 H   0  0  0  0  0  0  0  0  0  0  0  0
    8.1882   33.4998   59.5164 C   0  0  0  0  0  0  0  0  0  0  0  0
    8.4294   32.1397   59.7431 C   0  0  0  0  0  0  0  0  0  0  0  0
    7.9136   31.1664   58.8731 C   0  0  0  0  0  0  0  0  0  0  0  0
    7.1418   31.5407   57.7753 C   0  0  0  0  0  0  0  0  0  0  0  0
    6.8865   32.9023   57.5766 C   0  0  0  0  0  0  0  0  0  0  0  0
    6.1365   33.2829   56.5297 F   0  0  0  0  0  0  0  0  0  0  0  0
    7.3878   33.8788   58.4331 C   0  0  0  0  0  0  0  0  0  0  0  0
    8.0489   35.2032   61.4148 C   0  0  0  0  0  0  0  0  0  0  0  0
    8.8410   36.1524   61.8945 N   0  0  0  0  0  0  0  0  0  0  0  0
   10.0457   35.9904   61.2823 C   0  0  0  0  0  0  0  0  0  0  0  0
    9.9960   34.9477   60.3944 C   0  0  0  0  0  0  0  0  0  0  0  0
    8.6909   34.4944   60.4000 N   0  0  0  0  0  0  0  0  0  0  0  0
    6.7003   34.8828   62.0062 C   0  0  0  0  0  0  0  0  0  0  0  0
    6.2046   32.6857   62.9526 C   0  0  0  0  0  0  0  0  0  0  0  0
    6.7099   34.0326   63.2133 N   0  0  0  0  0  0  0  0  0  0  0  0
    6.0261   34.6418   64.3477 C   0  0  0  0  0  0  0  0  0  0  0  0
    2.7748   27.4889   53.9820 C   0  0  0  0  0  0  0  0  0  0  0  0
    2.8206   26.3179   53.2881 F   0  0  0  0  0  0  0  0  0  0  0  0
    1.8253   27.3317   54.9412 F   0  0  0  0  0  0  0  0  0  0  0  0
    2.3175   28.4309   53.1159 F   0  0  0  0  0  0  0  0  0  0  0  0
 35 36  1  0
 36 37  1  0
 36 34  1  0
 34 29  1  0
 29 30  2  0
 30 31  1  0
 31 32  2  0
 32 33  1  0
 33 22  1  0
 22 23  2  0
 23 24  1  0
 24 25  2  0
 25 18  1  0
 18 19  1  0
 19 20  2  0
 19  1  1  0
  1  2  2  0
  2  3  1  0
  3 38  1  0
 38 39  1  0
 38 40  1  0
 38 41  1  0
  3  4  2  0
  4  5  1  0
  5  6  1  0
  6  7  2  0
  7  8  1  0
  8  9  2  0
  9 10  1  0
 10 11  1  0
 11 12  2  0
 12 13  1  0
 12 14  1  0
 14 15  2  0
 25 26  1  0
 26 27  1  0
 26 28  2  0
 33 29  1  0
 28 22  1  0
  5  1  1  0
 15  6  1  0
 14  9  1  0
 18 21  1  0
 13 16  1  0
 13 17  1  0
M  END
> <minimizedAffinity>
-11.45538

> <CNNscore>
0.9900313616

> <CNNaffinity>
8.7944450378

> <CNN_VS>
8.7067766190

> <CNNaffinity_variance>
0.0010766089

$$$$



 41 45  0  0  0  0  0  0  0  0999 V2000
    6.0302   28.4491   55.3242 C   0  0  0  0  0  0  0  0  0  0  0  0
    4.6857   28.2933   55.0406 C   0  0  0  0  0  0  0  0  0  0  0  0
    4.6115   27.3030   54.0364 C   0  0  0  0  0  0  0  0  0  0  0  0
    5.8453   26.8898   53.6959 N   0  0  0  0  0  0  0  0  0  0  0  0
    6.7035   27.7001   54.3723 N   0  0  0  0  0  0  0  0  0  0  0  0
    8.0932   27.6775   54.0348 C   0  0  0  0  0  0  0  0  0  0  0  0
    8.9767   26.9418   54.8502 C   0  0  0  0  0  0  0  0  0  0  0  0
   10.3532   26.8912   54.5893 C   0  0  0  0  0  0  0  0  0  0  0  0
   10.7933   27.5957   53.4745 C   0  0  0  0  0  0  0  0  0  0  0  0
   12.0765   27.6922   53.0377 O   0  0  0  0  0  0  0  0  0  0  0  0
   12.1173   28.4728   51.8932 N   0  0  0  0  0  0  0  0  0  0  0  0
   10.8547   28.8311   51.6514 C   0  0  0  0  0  0  0  0  0  0  0  0
   10.4667   29.5947   50.6102 N   0  0  0  0  0  0  0  0  0  0  0  0
    9.9666   28.3091   52.6274 C   0  0  0  0  0  0  0  0  0  0  0  0
    8.5824   28.3463   52.8953 C   0  0  0  0  0  0  0  0  0  0  0  0
   11.1344   29.9260   49.9670 H   0  0  0  0  0  0  0  0  0  0  0  0
    9.5158   29.8210   50.4931 H   0  0  0  0  0  0  0  0  0  0  0  0
    5.6407   29.8387   57.1891 N   0  0  0  0  0  0  0  0  0  0  0  0
    6.5930   29.2456   56.3848 C   0  0  0  0  0  0  0  0  0  0  0  0
    7.8036   29.3843   56.5019 O   0  0  0  0  0  0  0  0  0  0  0  0
    4.7029   29.6998   56.9236 H   0  0  0  0  0  0  0  0  0  0  0  0
    6.0522   32.2319   60.6540 C   0  0  0  0  0  0  0  0  0  0  0  0
    7.1550   31.5055   60.1900 C   0  0  0  0  0  0  0  0  0  0  0  0
    7.0546   30.7090   59.0386 C   0  0  0  0  0  0  0  0  0  0  0  0
    5.8488   30.6203   58.3463 C   0  0  0  0  0  0  0  0  0  0  0  0
    4.7476   31.3307   58.8373 C   0  0  0  0  0  0  0  0  0  0  0  0
    3.5738   31.2505   58.1899 F   0  0  0  0  0  0  0  0  0  0  0  0
    4.8308   32.1215   59.9802 C   0  0  0  0  0  0  0  0  0  0  0  0
    6.9474   34.1269   62.1143 C   0  0  0  0  0  0  0  0  0  0  0  0
    6.8223   34.4816   63.3860 N   0  0  0  0  0  0  0  0  0  0  0  0
    5.8397   33.6971   63.9067 C   0  0  0  0  0  0  0  0  0  0  0  0
    5.3666   32.8283   62.9583 C   0  0  0  0  0  0  0  0  0  0  0  0
    6.1365   33.0290   61.8288 N   0  0  0  0  0  0  0  0  0  0  0  0
    7.7611   34.9131   61.1190 C   0  0  0  0  0  0  0  0  0  0  0  0
    9.5246   36.3231   62.0520 C   0  0  0  0  0  0  0  0  0  0  0  0
    9.2003   35.0447   61.4214 N   0  0  0  0  0  0  0  0  0  0  0  0
   10.0530   34.7958   60.2653 C   0  0  0  0  0  0  0  0  0  0  0  0
    3.3584   26.7354   53.4202 C   0  0  0  0  0  0  0  0  0  0  0  0
    3.6151   26.1395   52.2227 F   0  0  0  0  0  0  0  0  0  0  0  0
    2.7869   25.7871   54.2080 F   0  0  0  0  0  0  0  0  0  0  0  0
    2.4132   27.6825   53.1831 F   0  0  0  0  0  0  0  0  0  0  0  0
 35 36  1  0
 36 37  1  0
 36 34  1  0
 34 29  1  0
 29 30  2  0
 30 31  1  0
 31 32  2  0
 32 33  1  0
 33 22  1  0
 22 23  2  0
 23 24  1  0
 24 25  2  0
 25 18  1  0
 18 19  1  0
 19 20  2  0
 19  1  1  0
  1  2  2  0
  2  3  1  0
  3 38  1  0
 38 39  1  0
 38 40  1  0
 38 41  1  0
  3  4  2  0
  4  5  1  0
  5  6  1  0
  6  7  2  0
  7  8  1  0
  8  9  2  0
  9 10  1  0
 10 11  1  0
 11 12  2  0
 12 13  1  0
 12 14  1  0
 14 15  2  0
 25 26  1  0
 26 27  1  0
 26 28  2  0
 33 29  1  0
 28 22  1  0
  5  1  1  0
 15  6  1  0
 14  9  1  0
 18 21  1  0
 13 16  1  0
 13 17  1  0
M  END
> <minimizedAffinity>
-10.23414

> <CNNscore>
0.9842165709

> <CNNaffinity>
8.5545520782

> <CNN_VS>
8.4195318222

> <CNNaffinity_variance>
0.0475528724

$$$$



 41 45  0  0  0  0  0  0  0  0999 V2000
    7.5625   28.4680   56.0181 C   0  0  0  0  0  0  0  0  0  0  0  0
    8.8455   27.9563   55.9509 C   0  0  0  0  0  0  0  0  0  0  0  0
    9.0291   27.5391   54.6143 C   0  0  0  0  0  0  0  0  0  0  0  0
    7.9098   27.7536   53.9001 N   0  0  0  0  0  0  0  0  0  0  0  0
    6.9773   28.1744   54.7968 N   0  0  0  0  0  0  0  0  0  0  0  0
    5.6078   28.2514   54.3915 C   0  0  0  0  0  0  0  0  0  0  0  0
    5.0138   27.1220   53.7928 C   0  0  0  0  0  0  0  0  0  0  0  0
    3.6821   27.1333   53.3547 C   0  0  0  0  0  0  0  0  0  0  0  0
    2.9790   28.3155   53.5569 C   0  0  0  0  0  0  0  0  0  0  0  0
    1.6874   28.5540   53.2082 O   0  0  0  0  0  0  0  0  0  0  0  0
    1.3396   29.8433   53.5790 N   0  0  0  0  0  0  0  0  0  0  0  0
    2.4264   30.3630   54.1535 C   0  0  0  0  0  0  0  0  0  0  0  0
    2.4954   31.6094   54.6626 N   0  0  0  0  0  0  0  0  0  0  0  0
    3.5048   29.4407   54.1630 C   0  0  0  0  0  0  0  0  0  0  0  0
    4.8433   29.4151   54.6069 C   0  0  0  0  0  0  0  0  0  0  0  0
    1.7094   32.2010   54.6243 H   0  0  0  0  0  0  0  0  0  0  0  0
    3.3318   31.9280   55.0727 H   0  0  0  0  0  0  0  0  0  0  0  0
    7.6089   30.3272   57.4679 N   0  0  0  0  0  0  0  0  0  0  0  0
    6.9712   29.1468   57.1432 C   0  0  0  0  0  0  0  0  0  0  0  0
    6.0187   28.6685   57.7452 O   0  0  0  0  0  0  0  0  0  0  0  0
    8.4123   30.5439   56.9417 H   0  0  0  0  0  0  0  0  0  0  0  0
    6.5328   33.2826   60.2981 C   0  0  0  0  0  0  0  0  0  0  0  0
    6.5873   31.9419   60.6968 C   0  0  0  0  0  0  0  0  0  0  0  0
    6.9493   30.9380   59.7850 C   0  0  0  0  0  0  0  0  0  0  0  0
    7.2485   31.2614   58.4632 C   0  0  0  0  0  0  0  0  0  0  0  0
    7.1636   32.6025   58.0724 C   0  0  0  0  0  0  0  0  0  0  0  0
    7.4385   32.9334   56.8003 F   0  0  0  0  0  0  0  0  0  0  0  0
    6.8020   33.6086   58.9643 C   0  0  0  0  0  0  0  0  0  0  0  0
    6.8933   34.9569   62.1932 C   0  0  0  0  0  0  0  0  0  0  0  0
    6.1126   35.7394   62.9259 N   0  0  0  0  0  0  0  0  0  0  0  0
    4.8811   35.6995   62.3480 C   0  0  0  0  0  0  0  0  0  0  0  0
    4.8882   34.8646   61.2613 C   0  0  0  0  0  0  0  0  0  0  0  0
    6.1509   34.3067   61.2080 N   0  0  0  0  0  0  0  0  0  0  0  0
    8.3912   34.9114   62.3521 C   0  0  0  0  0  0  0  0  0  0  0  0
   10.0864   35.0047   60.5954 C   0  0  0  0  0  0  0  0  0  0  0  0
    9.1646   35.7700   61.4331 N   0  0  0  0  0  0  0  0  0  0  0  0
    9.8522   36.8616   62.1124 C   0  0  0  0  0  0  0  0  0  0  0  0
   10.2840   26.9573   54.0152 C   0  0  0  0  0  0  0  0  0  0  0  0
   10.3224   27.1331   52.6653 F   0  0  0  0  0  0  0  0  0  0  0  0
   11.4053   27.5423   54.5123 F   0  0  0  0  0  0  0  0  0  0  0  0
   10.3997   25.6207   54.2319 F   0  0  0  0  0  0  0  0  0  0  0  0
 35 36  1  0
 36 37  1  0
 36 34  1  0
 34 29  1  0
 29 30  2  0
 30 31  1  0
 31 32  2  0
 32 33  1  0
 33 22  1  0
 22 23  2  0
 23 24  1  0
 24 25  2  0
 25 18  1  0
 18 19  1  0
 19 20  2  0
 19  1  1  0
  1  2  2  0
  2  3  1  0
  3 38  1  0
 38 39  1  0
 38 40  1  0
 38 41  1  0
  3  4  2  0
  4  5  1  0
  5  6  1  0
  6  7  2  0
  7  8  1  0
  8  9  2  0
  9 10  1  0
 10 11  1  0
 11 12  2  0
 12 13  1  0
 12 14  1  0
 14 15  2  0
 25 26  1  0
 26 27  1  0
 26 28  2  0
 33 29  1  0
 28 22  1  0
  5  1  1  0
 15  6  1  0
 14  9  1  0
 18 21  1  0
 13 16  1  0
 13 17  1  0
M  END
> <minimizedAffinity>
-9.33920

> <CNNscore>
0.4668681622

> <CNNaffinity>
7.5745787621

> <CNN_VS>
3.5363297462

> <CNNaffinity_variance>
0.1258528978

$$$$



 41 45  0  0  0  0  0  0  0  0999 V2000
    4.4566   29.9506   56.1731 C   0  0  0  0  0  0  0  0  0  0  0  0
    4.7530   28.6431   55.8338 C   0  0  0  0  0  0  0  0  0  0  0  0
    4.1916   28.4357   54.5546 C   0  0  0  0  0  0  0  0  0  0  0  0
    3.5564   29.5455   54.1377 N   0  0  0  0  0  0  0  0  0  0  0  0
    3.5918   30.4060   55.1908 N   0  0  0  0  0  0  0  0  0  0  0  0
    2.7853   31.5866   55.1514 C   0  0  0  0  0  0  0  0  0  0  0  0
    1.3952   31.4517   54.9615 C   0  0  0  0  0  0  0  0  0  0  0  0
    0.5477   32.5663   54.8940 C   0  0  0  0  0  0  0  0  0  0  0  0
    1.1543   33.8089   55.0387 C   0  0  0  0  0  0  0  0  0  0  0  0
    0.5339   35.0173   55.0010 O   0  0  0  0  0  0  0  0  0  0  0  0
    1.4688   36.0225   55.1911 N   0  0  0  0  0  0  0  0  0  0  0  0
    2.6413   35.4047   55.3480 C   0  0  0  0  0  0  0  0  0  0  0  0
    3.8112   36.0376   55.5680 N   0  0  0  0  0  0  0  0  0  0  0  0
    2.5066   33.9952   55.2544 C   0  0  0  0  0  0  0  0  0  0  0  0
    3.3484   32.8660   55.3283 C   0  0  0  0  0  0  0  0  0  0  0  0
    3.8366   37.0203   55.6224 H   0  0  0  0  0  0  0  0  0  0  0  0
    4.6400   35.5171   55.6744 H   0  0  0  0  0  0  0  0  0  0  0  0
    6.1970   31.2140   57.1403 N   0  0  0  0  0  0  0  0  0  0  0  0
    4.9438   30.6657   57.3252 C   0  0  0  0  0  0  0  0  0  0  0  0
    4.2913   30.7251   58.3592 O   0  0  0  0  0  0  0  0  0  0  0  0
    6.6336   31.0151   56.2806 H   0  0  0  0  0  0  0  0  0  0  0  0
    8.2993   33.8207   59.7264 C   0  0  0  0  0  0  0  0  0  0  0  0
    8.4067   32.4378   59.9145 C   0  0  0  0  0  0  0  0  0  0  0  0
    7.7293   31.5454   59.0687 C   0  0  0  0  0  0  0  0  0  0  0  0
    6.9284   32.0253   58.0346 C   0  0  0  0  0  0  0  0  0  0  0  0
    6.8091   33.4106   57.8755 C   0  0  0  0  0  0  0  0  0  0  0  0
    6.0341   33.8932   56.8908 F   0  0  0  0  0  0  0  0  0  0  0  0
    7.4715   34.3080   58.7089 C   0  0  0  0  0  0  0  0  0  0  0  0
    8.6150   35.1979   61.8544 C   0  0  0  0  0  0  0  0  0  0  0  0
    9.4352   36.1649   62.2428 N   0  0  0  0  0  0  0  0  0  0  0  0
   10.3994   36.2552   61.2866 C   0  0  0  0  0  0  0  0  0  0  0  0
   10.1634   35.3545   60.2810 C   0  0  0  0  0  0  0  0  0  0  0  0
    8.9669   34.7352   60.5869 N   0  0  0  0  0  0  0  0  0  0  0  0
    7.5481   34.6184   62.7471 C   0  0  0  0  0  0  0  0  0  0  0  0
    5.6574   36.1174   63.1305 C   0  0  0  0  0  0  0  0  0  0  0  0
    6.1554   34.9574   62.3931 N   0  0  0  0  0  0  0  0  0  0  0  0
    5.2433   33.8262   62.5115 C   0  0  0  0  0  0  0  0  0  0  0  0
    4.2837   27.1829   53.7214 C   0  0  0  0  0  0  0  0  0  0  0  0
    5.5786   26.8283   53.4922 F   0  0  0  0  0  0  0  0  0  0  0  0
    3.6952   26.1204   54.3309 F   0  0  0  0  0  0  0  0  0  0  0  0
    3.7009   27.3184   52.5013 F   0  0  0  0  0  0  0  0  0  0  0  0
 35 36  1  0
 36 37  1  0
 36 34  1  0
 34 29  1  0
 29 30  2  0
 30 31  1  0
 31 32  2  0
 32 33  1  0
 33 22  1  0
 22 23  2  0
 23 24  1  0
 24 25  2  0
 25 18  1  0
 18 19  1  0
 19 20  2  0
 19  1  1  0
  1  2  2  0
  2  3  1  0
  3 38  1  0
 38 39  1  0
 38 40  1  0
 38 41  1  0
  3  4  2  0
  4  5  1  0
  5  6  1  0
  6  7  2  0
  7  8  1  0
  8  9  2  0
  9 10  1  0
 10 11  1  0
 11 12  2  0
 12 13  1  0
 12 14  1  0
 14 15  2  0
 25 26  1  0
 26 27  1  0
 26 28  2  0
 33 29  1  0
 28 22  1  0
  5  1  1  0
 15  6  1  0
 14  9  1  0
 18 21  1  0
 13 16  1  0
 13 17  1  0
M  END
> <minimizedAffinity>
-8.28695

> <CNNscore>
0.3736476600

> <CNNaffinity>
7.1623821259

> <CNN_VS>
2.6762073040

> <CNNaffinity_variance>
0.0282258689

$$$$



 41 45  0  0  0  0  0  0  0  0999 V2000
    8.3233   27.9023   56.0966 C   0  0  0  0  0  0  0  0  0  0  0  0
    9.5798   27.4728   55.7107 C   0  0  0  0  0  0  0  0  0  0  0  0
    9.5984   27.5398   54.3002 C   0  0  0  0  0  0  0  0  0  0  0  0
    8.4075   27.9596   53.8368 N   0  0  0  0  0  0  0  0  0  0  0  0
    7.5942   28.0291   54.9251 N   0  0  0  0  0  0  0  0  0  0  0  0
    6.1884   28.2090   54.7321 C   0  0  0  0  0  0  0  0  0  0  0  0
    5.5534   29.3026   55.3546 C   0  0  0  0  0  0  0  0  0  0  0  0
    4.1760   29.5287   55.2239 C   0  0  0  0  0  0  0  0  0  0  0  0
    3.4768   28.6219   54.4354 C   0  0  0  0  0  0  0  0  0  0  0  0
    2.1430   28.6412   54.1761 O   0  0  0  0  0  0  0  0  0  0  0  0
    1.8187   27.5803   53.3454 N   0  0  0  0  0  0  0  0  0  0  0  0
    2.9650   26.9388   53.1093 C   0  0  0  0  0  0  0  0  0  0  0  0
    3.0778   25.8447   52.3297 N   0  0  0  0  0  0  0  0  0  0  0  0
    4.0549   27.5505   53.7813 C   0  0  0  0  0  0  0  0  0  0  0  0
    5.4428   27.3375   53.9137 C   0  0  0  0  0  0  0  0  0  0  0  0
    2.2808   25.4688   51.8906 H   0  0  0  0  0  0  0  0  0  0  0  0
    3.9572   25.4215   52.1996 H   0  0  0  0  0  0  0  0  0  0  0  0
    7.5977   29.4711   57.7007 N   0  0  0  0  0  0  0  0  0  0  0  0
    7.8801   28.1442   57.4461 C   0  0  0  0  0  0  0  0  0  0  0  0
    7.8102   27.2365   58.2645 O   0  0  0  0  0  0  0  0  0  0  0  0
    7.7776   30.1005   56.9653 H   0  0  0  0  0  0  0  0  0  0  0  0
    6.1828   31.3334   61.2266 C   0  0  0  0  0  0  0  0  0  0  0  0
    5.6072   30.1264   60.8128 C   0  0  0  0  0  0  0  0  0  0  0  0
    6.0594   29.4783   59.6527 C   0  0  0  0  0  0  0  0  0  0  0  0
    7.0822   30.0351   58.8878 C   0  0  0  0  0  0  0  0  0  0  0  0
    7.6296   31.2556   59.2991 C   0  0  0  0  0  0  0  0  0  0  0  0
    8.6096   31.8137   58.5701 F   0  0  0  0  0  0  0  0  0  0  0  0
    7.1887   31.9123   60.4450 C   0  0  0  0  0  0  0  0  0  0  0  0
    5.5351   33.3701   62.6257 C   0  0  0  0  0  0  0  0  0  0  0  0
    5.2402   33.5875   63.9002 N   0  0  0  0  0  0  0  0  0  0  0  0
    5.1124   32.3618   64.4775 C   0  0  0  0  0  0  0  0  0  0  0  0
    5.3553   31.3723   63.5609 C   0  0  0  0  0  0  0  0  0  0  0  0
    5.7220   32.0083   62.3906 N   0  0  0  0  0  0  0  0  0  0  0  0
    5.5255   34.4585   61.5835 C   0  0  0  0  0  0  0  0  0  0  0  0
    7.7228   35.0323   60.6828 C   0  0  0  0  0  0  0  0  0  0  0  0
    6.6633   35.3987   61.6212 N   0  0  0  0  0  0  0  0  0  0  0  0
    7.1947   35.6005   62.9638 C   0  0  0  0  0  0  0  0  0  0  0  0
   10.7637   27.2247   53.3974 C   0  0  0  0  0  0  0  0  0  0  0  0
   11.8726   27.9348   53.7452 F   0  0  0  0  0  0  0  0  0  0  0  0
   11.1126   25.9127   53.4539 F   0  0  0  0  0  0  0  0  0  0  0  0
   10.5135   27.5171   52.0941 F   0  0  0  0  0  0  0  0  0  0  0  0
 35 36  1  0
 36 37  1  0
 36 34  1  0
 34 29  1  0
 29 30  2  0
 30 31  1  0
 31 32  2  0
 32 33  1  0
 33 22  1  0
 22 23  2  0
 23 24  1  0
 24 25  2  0
 25 18  1  0
 18 19  1  0
 19 20  2  0
 19  1  1  0
  1  2  2  0
  2  3  1  0
  3 38  1  0
 38 39  1  0
 38 40  1  0
 38 41  1  0
  3  4  2  0
  4  5  1  0
  5  6  1  0
  6  7  2  0
  7  8  1  0
  8  9  2  0
  9 10  1  0
 10 11  1  0
 11 12  2  0
 12 13  1  0
 12 14  1  0
 14 15  2  0
 25 26  1  0
 26 27  1  0
 26 28  2  0
 33 29  1  0
 28 22  1  0
  5  1  1  0
 15  6  1  0
 14  9  1  0
 18 21  1  0
 13 16  1  0
 13 17  1  0
M  END
> <minimizedAffinity>
-8.95772

> <CNNscore>
0.3259178996

> <CNNaffinity>
7.2051959038

> <CNN_VS>
2.3483023643

> <CNNaffinity_variance>
0.1093101576

$$$$



 41 45  0  0  0  0  0  0  0  0999 V2000
    6.9599   31.5996   57.8558 C   0  0  0  0  0  0  0  0  0  0  0  0
    7.2252   30.3623   57.2980 C   0  0  0  0  0  0  0  0  0  0  0  0
    7.6905   29.5498   58.3554 C   0  0  0  0  0  0  0  0  0  0  0  0
    7.7389   30.2550   59.4997 N   0  0  0  0  0  0  0  0  0  0  0  0
    7.4405   31.5364   59.1540 N   0  0  0  0  0  0  0  0  0  0  0  0
    7.6495   32.5807   60.1087 C   0  0  0  0  0  0  0  0  0  0  0  0
    6.7157   32.7420   61.1521 C   0  0  0  0  0  0  0  0  0  0  0  0
    6.8481   33.7558   62.1112 C   0  0  0  0  0  0  0  0  0  0  0  0
    7.9586   34.5823   61.9820 C   0  0  0  0  0  0  0  0  0  0  0  0
    8.2829   35.6272   62.7881 O   0  0  0  0  0  0  0  0  0  0  0  0
    9.4634   36.2028   62.3454 N   0  0  0  0  0  0  0  0  0  0  0  0
    9.8387   35.4913   61.2805 C   0  0  0  0  0  0  0  0  0  0  0  0
   10.9541   35.7291   60.5614 N   0  0  0  0  0  0  0  0  0  0  0  0
    8.9175   34.4503   60.9957 C   0  0  0  0  0  0  0  0  0  0  0  0
    8.7780   33.4216   60.0408 C   0  0  0  0  0  0  0  0  0  0  0  0
   11.5530   36.4691   60.8123 H   0  0  0  0  0  0  0  0  0  0  0  0
   11.1696   35.1628   59.7855 H   0  0  0  0  0  0  0  0  0  0  0  0
    4.9670   32.5595   57.0389 N   0  0  0  0  0  0  0  0  0  0  0  0
    6.3292   32.7157   57.1983 C   0  0  0  0  0  0  0  0  0  0  0  0
    6.9823   33.6729   56.8037 O   0  0  0  0  0  0  0  0  0  0  0  0
    4.5925   31.6989   57.3363 H   0  0  0  0  0  0  0  0  0  0  0  0
    2.1259   35.1705   55.3030 C   0  0  0  0  0  0  0  0  0  0  0  0
    2.9515   35.6435   56.3297 C   0  0  0  0  0  0  0  0  0  0  0  0
    3.9102   34.8059   56.9208 C   0  0  0  0  0  0  0  0  0  0  0  0
    4.0458   33.4843   56.5011 C   0  0  0  0  0  0  0  0  0  0  0  0
    3.1953   33.0176   55.4924 C   0  0  0  0  0  0  0  0  0  0  0  0
    3.3034   31.7440   55.0807 F   0  0  0  0  0  0  0  0  0  0  0  0
    2.2369   33.8353   54.8996 C   0  0  0  0  0  0  0  0  0  0  0  0
    1.2808   37.1793   53.9706 C   0  0  0  0  0  0  0  0  0  0  0  0
    0.0966   37.7271   53.7335 N   0  0  0  0  0  0  0  0  0  0  0  0
   -0.8313   36.8514   54.2072 C   0  0  0  0  0  0  0  0  0  0  0  0
   -0.2193   35.7608   54.7677 C   0  0  0  0  0  0  0  0  0  0  0  0
    1.1393   36.0042   54.7079 N   0  0  0  0  0  0  0  0  0  0  0  0
    2.5640   37.7144   53.3893 C   0  0  0  0  0  0  0  0  0  0  0  0
    2.5858   39.2344   55.3018 C   0  0  0  0  0  0  0  0  0  0  0  0
    3.0250   39.0105   53.9255 N   0  0  0  0  0  0  0  0  0  0  0  0
    2.6772   40.1395   53.0710 C   0  0  0  0  0  0  0  0  0  0  0  0
    8.0659   28.0922   58.2749 C   0  0  0  0  0  0  0  0  0  0  0  0
    7.3265   27.3367   59.1337 F   0  0  0  0  0  0  0  0  0  0  0  0
    7.8582   27.5796   57.0337 F   0  0  0  0  0  0  0  0  0  0  0  0
    9.3687   27.8664   58.5889 F   0  0  0  0  0  0  0  0  0  0  0  0
 35 36  1  0
 36 37  1  0
 36 34  1  0
 34 29  1  0
 29 30  2  0
 30 31  1  0
 31 32  2  0
 32 33  1  0
 33 22  1  0
 22 23  2  0
 23 24  1  0
 24 25  2  0
 25 18  1  0
 18 19  1  0
 19 20  2  0
 19  1  1  0
  1  2  2  0
  2  3  1  0
  3 38  1  0
 38 39  1  0
 38 40  1  0
 38 41  1  0
  3  4  2  0
  4  5  1  0
  5  6  1  0
  6  7  2  0
  7  8  1  0
  8  9  2  0
  9 10  1  0
 10 11  1  0
 11 12  2  0
 12 13  1  0
 12 14  1  0
 14 15  2  0
 25 26  1  0
 26 27  1  0
 26 28  2  0
 33 29  1  0
 28 22  1  0
  5  1  1  0
 15  6  1  0
 14  9  1  0
 18 21  1  0
 13 16  1  0
 13 17  1  0
M  END
> <minimizedAffinity>
-8.19915

> <CNNscore>
0.2432359457

> <CNNaffinity>
6.3332285881

> <CNN_VS>
1.5404688120

> <CNNaffinity_variance>
0.2082075328

$$$$



 41 45  0  0  0  0  0  0  0  0999 V2000
    6.8294   32.0088   57.9242 C   0  0  0  0  0  0  0  0  0  0  0  0
    6.9262   30.7115   57.4550 C   0  0  0  0  0  0  0  0  0  0  0  0
    7.5012   29.9599   58.5033 C   0  0  0  0  0  0  0  0  0  0  0  0
    7.7731   30.7550   59.5535 N   0  0  0  0  0  0  0  0  0  0  0  0
    7.5038   32.0210   59.1347 N   0  0  0  0  0  0  0  0  0  0  0  0
    7.9252   33.1245   59.9411 C   0  0  0  0  0  0  0  0  0  0  0  0
    9.2802   33.5112   59.9060 C   0  0  0  0  0  0  0  0  0  0  0  0
    9.7658   34.5712   60.6844 C   0  0  0  0  0  0  0  0  0  0  0  0
    8.8331   35.2262   61.4805 C   0  0  0  0  0  0  0  0  0  0  0  0
    9.0785   36.2699   62.3155 O   0  0  0  0  0  0  0  0  0  0  0  0
    7.8985   36.6553   62.9320 N   0  0  0  0  0  0  0  0  0  0  0  0
    6.9550   35.8415   62.4539 C   0  0  0  0  0  0  0  0  0  0  0  0
    5.6538   35.8978   62.8024 N   0  0  0  0  0  0  0  0  0  0  0  0
    7.4898   34.9056   61.5310 C   0  0  0  0  0  0  0  0  0  0  0  0
    7.0111   33.8424   60.7375 C   0  0  0  0  0  0  0  0  0  0  0  0
    5.3465   36.5727   63.4500 H   0  0  0  0  0  0  0  0  0  0  0  0
    5.0111   35.2641   62.4094 H   0  0  0  0  0  0  0  0  0  0  0  0
    4.7963   33.0536   57.3450 N   0  0  0  0  0  0  0  0  0  0  0  0
    6.1732   33.1091   57.2648 C   0  0  0  0  0  0  0  0  0  0  0  0
    6.8132   33.9681   56.6724 O   0  0  0  0  0  0  0  0  0  0  0  0
    4.4204   32.2582   57.7870 H   0  0  0  0  0  0  0  0  0  0  0  0
    2.0018   35.9838   56.1173 C   0  0  0  0  0  0  0  0  0  0  0  0
    2.4678   35.0501   55.1843 C   0  0  0  0  0  0  0  0  0  0  0  0
    3.3883   34.0597   55.5611 C   0  0  0  0  0  0  0  0  0  0  0  0
    3.8618   33.9993   56.8700 C   0  0  0  0  0  0  0  0  0  0  0  0
    3.4076   34.9558   57.7851 C   0  0  0  0  0  0  0  0  0  0  0  0
    3.8596   34.9206   59.0491 F   0  0  0  0  0  0  0  0  0  0  0  0
    2.4980   35.9466   57.4251 C   0  0  0  0  0  0  0  0  0  0  0  0
    1.2992   38.3512   55.4641 C   0  0  0  0  0  0  0  0  0  0  0  0
    0.1460   38.9873   55.3098 N   0  0  0  0  0  0  0  0  0  0  0  0
   -0.8257   38.0362   55.3661 C   0  0  0  0  0  0  0  0  0  0  0  0
   -0.2750   36.8002   55.5835 C   0  0  0  0  0  0  0  0  0  0  0  0
    1.0823   37.0024   55.7438 N   0  0  0  0  0  0  0  0  0  0  0  0
    2.6359   39.0055   55.2272 C   0  0  0  0  0  0  0  0  0  0  0  0
    2.5028   40.5724   53.3575 C   0  0  0  0  0  0  0  0  0  0  0  0
    2.9843   39.2708   53.8172 N   0  0  0  0  0  0  0  0  0  0  0  0
    2.5663   38.2052   52.9142 C   0  0  0  0  0  0  0  0  0  0  0  0
    7.7682   28.4763   58.5083 C   0  0  0  0  0  0  0  0  0  0  0  0
    7.0204   27.8363   59.4497 F   0  0  0  0  0  0  0  0  0  0  0  0
    7.4639   27.8992   57.3164 F   0  0  0  0  0  0  0  0  0  0  0  0
    9.0656   28.1762   58.7793 F   0  0  0  0  0  0  0  0  0  0  0  0
 35 36  1  0
 36 37  1  0
 36 34  1  0
 34 29  1  0
 29 30  2  0
 30 31  1  0
 31 32  2  0
 32 33  1  0
 33 22  1  0
 22 23  2  0
 23 24  1  0
 24 25  2  0
 25 18  1  0
 18 19  1  0
 19 20  2  0
 19  1  1  0
  1  2  2  0
  2  3  1  0
  3 38  1  0
 38 39  1  0
 38 40  1  0
 38 41  1  0
  3  4  2  0
  4  5  1  0
  5  6  1  0
  6  7  2  0
  7  8  1  0
  8  9  2  0
  9 10  1  0
 10 11  1  0
 11 12  2  0
 12 13  1  0
 12 14  1  0
 14 15  2  0
 25 26  1  0
 26 27  1  0
 26 28  2  0
 33 29  1  0
 28 22  1  0
  5  1  1  0
 15  6  1  0
 14  9  1  0
 18 21  1  0
 13 16  1  0
 13 17  1  0
M  END
> <minimizedAffinity>
-7.80636

> <CNNscore>
0.2329192013

> <CNNaffinity>
6.4555377960

> <CNN_VS>
1.5036187172

> <CNNaffinity_variance>
0.0433420241

$$$$



 41 45  0  0  0  0  0  0  0  0999 V2000
    6.9709   31.5612   57.8558 C   0  0  0  0  0  0  0  0  0  0  0  0
    7.2349   30.3337   57.2761 C   0  0  0  0  0  0  0  0  0  0  0  0
    7.6884   29.4987   58.3209 C   0  0  0  0  0  0  0  0  0  0  0  0
    7.7310   30.1812   59.4791 N   0  0  0  0  0  0  0  0  0  0  0  0
    7.4411   31.4705   59.1562 N   0  0  0  0  0  0  0  0  0  0  0  0
    7.6474   32.4951   60.1326 C   0  0  0  0  0  0  0  0  0  0  0  0
    6.7451   32.5953   61.2108 C   0  0  0  0  0  0  0  0  0  0  0  0
    6.8761   33.5866   62.1934 C   0  0  0  0  0  0  0  0  0  0  0  0
    7.9528   34.4544   62.0507 C   0  0  0  0  0  0  0  0  0  0  0  0
    8.2692   35.4876   62.8748 O   0  0  0  0  0  0  0  0  0  0  0  0
    9.4135   36.1158   62.4094 N   0  0  0  0  0  0  0  0  0  0  0  0
    9.7759   35.4471   61.3127 C   0  0  0  0  0  0  0  0  0  0  0  0
   10.8571   35.7431   60.5637 N   0  0  0  0  0  0  0  0  0  0  0  0
    8.8812   34.3827   61.0294 C   0  0  0  0  0  0  0  0  0  0  0  0
    8.7437   33.3763   60.0509 C   0  0  0  0  0  0  0  0  0  0  0  0
   11.4390   36.4963   60.8153 H   0  0  0  0  0  0  0  0  0  0  0  0
   11.0648   35.2059   59.7652 H   0  0  0  0  0  0  0  0  0  0  0  0
    4.9715   32.6282   57.2043 N   0  0  0  0  0  0  0  0  0  0  0  0
    6.3503   32.6928   57.2153 C   0  0  0  0  0  0  0  0  0  0  0  0
    7.0207   33.5847   56.7116 O   0  0  0  0  0  0  0  0  0  0  0  0
    4.5738   31.8089   57.5783 H   0  0  0  0  0  0  0  0  0  0  0  0
    2.2844   35.6411   55.9379 C   0  0  0  0  0  0  0  0  0  0  0  0
    2.5616   34.5687   55.0822 C   0  0  0  0  0  0  0  0  0  0  0  0
    3.4414   33.5481   55.4752 C   0  0  0  0  0  0  0  0  0  0  0  0
    4.0626   33.5946   56.7215 C   0  0  0  0  0  0  0  0  0  0  0  0
    3.7967   34.6866   57.5554 C   0  0  0  0  0  0  0  0  0  0  0  0
    4.3931   34.7549   58.7566 F   0  0  0  0  0  0  0  0  0  0  0  0
    2.9296   35.7084   57.1777 C   0  0  0  0  0  0  0  0  0  0  0  0
    0.6904   37.6004   56.3197 C   0  0  0  0  0  0  0  0  0  0  0  0
   -0.1311   38.3135   55.5613 N   0  0  0  0  0  0  0  0  0  0  0  0
    0.1329   37.9594   54.2740 C   0  0  0  0  0  0  0  0  0  0  0  0
    1.1091   36.9984   54.2316 C   0  0  0  0  0  0  0  0  0  0  0  0
    1.4080   36.6899   55.5446 N   0  0  0  0  0  0  0  0  0  0  0  0
    0.8869   37.8641   57.7903 C   0  0  0  0  0  0  0  0  0  0  0  0
    2.2285   39.8813   58.1056 C   0  0  0  0  0  0  0  0  0  0  0  0
    0.8974   39.2836   58.1962 N   0  0  0  0  0  0  0  0  0  0  0  0
    0.3075   39.5073   59.5107 C   0  0  0  0  0  0  0  0  0  0  0  0
    8.0579   28.0412   58.2149 C   0  0  0  0  0  0  0  0  0  0  0  0
    8.0764   27.6224   56.9191 F   0  0  0  0  0  0  0  0  0  0  0  0
    9.2947   27.7905   58.7189 F   0  0  0  0  0  0  0  0  0  0  0  0
    7.1865   27.2287   58.8687 F   0  0  0  0  0  0  0  0  0  0  0  0
 35 36  1  0
 36 37  1  0
 36 34  1  0
 34 29  1  0
 29 30  2  0
 30 31  1  0
 31 32  2  0
 32 33  1  0
 33 22  1  0
 22 23  2  0
 23 24  1  0
 24 25  2  0
 25 18  1  0
 18 19  1  0
 19 20  2  0
 19  1  1  0
  1  2  2  0
  2  3  1  0
  3 38  1  0
 38 39  1  0
 38 40  1  0
 38 41  1  0
  3  4  2  0
  4  5  1  0
  5  6  1  0
  6  7  2  0
  7  8  1  0
  8  9  2  0
  9 10  1  0
 10 11  1  0
 11 12  2  0
 12 13  1  0
 12 14  1  0
 14 15  2  0
 25 26  1  0
 26 27  1  0
 26 28  2  0
 33 29  1  0
 28 22  1  0
  5  1  1  0
 15  6  1  0
 14  9  1  0
 18 21  1  0
 13 16  1  0
 13 17  1  0
M  END
> <minimizedAffinity>
-7.56912

> <CNNscore>
0.2249355465

> <CNNaffinity>
6.2864341736

> <CNN_VS>
1.4140424728

> <CNNaffinity_variance>
0.2028308064

$$$$



 41 45  0  0  0  0  0  0  0  0999 V2000
    6.8645   31.8843   57.9020 C   0  0  0  0  0  0  0  0  0  0  0  0
    6.9717   30.5780   57.4608 C   0  0  0  0  0  0  0  0  0  0  0  0
    7.4995   29.8426   58.5449 C   0  0  0  0  0  0  0  0  0  0  0  0
    7.7342   30.6555   59.5904 N   0  0  0  0  0  0  0  0  0  0  0  0
    7.4901   31.9150   59.1381 N   0  0  0  0  0  0  0  0  0  0  0  0
    7.8859   33.0309   59.9405 C   0  0  0  0  0  0  0  0  0  0  0  0
    9.2371   33.4318   59.9245 C   0  0  0  0  0  0  0  0  0  0  0  0
    9.6981   34.5046   60.7003 C   0  0  0  0  0  0  0  0  0  0  0  0
    8.7451   35.1573   61.4740 C   0  0  0  0  0  0  0  0  0  0  0  0
    8.9651   36.2117   62.3025 O   0  0  0  0  0  0  0  0  0  0  0  0
    7.7708   36.5903   62.8951 N   0  0  0  0  0  0  0  0  0  0  0  0
    6.8443   35.7617   62.4093 C   0  0  0  0  0  0  0  0  0  0  0  0
    5.5368   35.8074   62.7352 N   0  0  0  0  0  0  0  0  0  0  0  0
    7.4046   34.8227   61.5049 C   0  0  0  0  0  0  0  0  0  0  0  0
    6.9508   33.7466   60.7141 C   0  0  0  0  0  0  0  0  0  0  0  0
    5.2113   36.4853   63.3706 H   0  0  0  0  0  0  0  0  0  0  0  0
    4.9076   35.1630   62.3377 H   0  0  0  0  0  0  0  0  0  0  0  0
    4.8681   32.8685   57.1236 N   0  0  0  0  0  0  0  0  0  0  0  0
    6.2423   32.9759   57.1968 C   0  0  0  0  0  0  0  0  0  0  0  0
    6.9095   33.8718   56.6962 O   0  0  0  0  0  0  0  0  0  0  0  0
    4.4771   32.0495   57.5051 H   0  0  0  0  0  0  0  0  0  0  0  0
    2.0875   35.4869   55.3028 C   0  0  0  0  0  0  0  0  0  0  0  0
    2.6997   35.8668   56.5028 C   0  0  0  0  0  0  0  0  0  0  0  0
    3.6332   35.0254   57.1281 C   0  0  0  0  0  0  0  0  0  0  0  0
    3.9552   33.7911   56.5678 C   0  0  0  0  0  0  0  0  0  0  0  0
    3.3151   33.4130   55.3821 C   0  0  0  0  0  0  0  0  0  0  0  0
    3.6045   32.2229   54.8314 F   0  0  0  0  0  0  0  0  0  0  0  0
    2.3842   34.2350   54.7526 C   0  0  0  0  0  0  0  0  0  0  0  0
   -0.2050   36.0745   54.3413 C   0  0  0  0  0  0  0  0  0  0  0  0
   -0.7002   37.0672   53.6147 N   0  0  0  0  0  0  0  0  0  0  0  0
    0.2659   38.0245   53.5666 C   0  0  0  0  0  0  0  0  0  0  0  0
    1.3823   37.6137   54.2471 C   0  0  0  0  0  0  0  0  0  0  0  0
    1.1276   36.3229   54.6685 N   0  0  0  0  0  0  0  0  0  0  0  0
   -1.0412   34.9224   54.8356 C   0  0  0  0  0  0  0  0  0  0  0  0
   -2.3188   33.7256   53.1315 C   0  0  0  0  0  0  0  0  0  0  0  0
   -1.1064   33.7441   53.9482 N   0  0  0  0  0  0  0  0  0  0  0  0
   -0.9294   32.4829   54.6578 C   0  0  0  0  0  0  0  0  0  0  0  0
    7.7566   28.3580   58.5877 C   0  0  0  0  0  0  0  0  0  0  0  0
    7.5412   27.7775   57.3747 F   0  0  0  0  0  0  0  0  0  0  0  0
    9.0404   28.0722   58.9293 F   0  0  0  0  0  0  0  0  0  0  0  0
    6.9529   27.7102   59.4716 F   0  0  0  0  0  0  0  0  0  0  0  0
 35 36  1  0
 36 37  1  0
 36 34  1  0
 34 29  1  0
 29 30  2  0
 30 31  1  0
 31 32  2  0
 32 33  1  0
 33 22  1  0
 22 23  2  0
 23 24  1  0
 24 25  2  0
 25 18  1  0
 18 19  1  0
 19 20  2  0
 19  1  1  0
  1  2  2  0
  2  3  1  0
  3 38  1  0
 38 39  1  0
 38 40  1  0
 38 41  1  0
  3  4  2  0
  4  5  1  0
  5  6  1  0
  6  7  2  0
  7  8  1  0
  8  9  2  0
  9 10  1  0
 10 11  1  0
 11 12  2  0
 12 13  1  0
 12 14  1  0
 14 15  2  0
 25 26  1  0
 26 27  1  0
 26 28  2  0
 33 29  1  0
 28 22  1  0
  5  1  1  0
 15  6  1  0
 14  9  1  0
 18 21  1  0
 13 16  1  0
 13 17  1  0
M  END
> <minimizedAffinity>
-7.49767

> <CNNscore>
0.2174653560

> <CNNaffinity>
6.2130413055

> <CNN_VS>
1.3511211872

> <CNNaffinity_variance>
0.0444205739

$$$$
