


 19 20  0  0  0  0  0  0  0  0999 V2000
   -4.8239    5.5835   13.1082 C   0  0  0  0  0  0  0  0  0  0  0  0
   -5.7526    5.2404   14.1003 C   0  0  0  0  0  0  0  0  0  0  0  0
   -5.6652    3.9669   14.6947 C   0  0  0  0  0  0  0  0  0  0  0  0
   -6.6592    3.2793   15.9253 S   0  0  0  0  0  0  0  0  0  0  0  0
   -5.7269    1.8527   15.8627 C   0  0  0  0  0  0  0  0  0  0  0  0
   -4.7289    1.8320   15.0012 N   0  0  0  0  0  0  0  0  0  0  0  0
   -4.6871    3.0403   14.3282 C   0  0  0  0  0  0  0  0  0  0  0  0
   -3.7601    3.3939   13.3317 C   0  0  0  0  0  0  0  0  0  0  0  0
   -3.8389    4.6583   12.7346 C   0  0  0  0  0  0  0  0  0  0  0  0
   -2.5516    5.0687   11.3939 Br  0  0  0  0  0  0  0  0  0  0  0  0
   -6.1867    0.5358   16.9589 S   0  0  0  0  0  0  0  0  0  0  0  0
   -5.7904   -0.9443   16.2547 N   0  0  0  0  0  0  0  0  0  0  0  0
   -5.3403    0.6495   18.1261 O   0  0  0  0  0  0  0  0  0  0  0  0
   -7.6301    0.5502   17.0462 O   0  0  0  0  0  0  0  0  0  0  0  0
   -4.7770   -1.0174   16.1643 H   0  0  0  0  0  0  0  0  0  0  0  0
   -6.2195   -1.0074   15.3315 H   0  0  0  0  0  0  0  0  0  0  0  0
   -4.8086    6.7913   12.4589 O   0  0  0  0  0  0  0  0  0  0  0  0
   -6.8907    7.5348   11.5754 C   0  0  0  0  0  0  0  0  0  0  0  0
   -5.5455    6.9137   11.2444 C   0  0  0  0  0  0  0  0  0  0  0  0
 18 19  1  0
 19 17  1  0
 17  1  1  0
  1  2  2  0
  2  3  1  0
  3  4  1  0
  4  5  1  0
  5 11  1  0
 11 12  1  0
 11 13  2  0
 11 14  2  0
  5  6  2  0
  6  7  1  0
  7  8  1  0
  8  9  2  0
  9 10  1  0
  9  1  1  0
  7  3  2  0
 12 15  1  0
 12 16  1  0
M  END
> <minimizedAffinity>
-6.85989

> <CNNscore>
0.9047637582

> <CNNaffinity>
7.2233462334

> <CNN_VS>
6.5354218483

> <CNNaffinity_variance>
0.6979166865

$$$$



 19 20  0  0  0  0  0  0  0  0999 V2000
   -3.4072    5.2864   13.6248 C   0  0  0  0  0  0  0  0  0  0  0  0
   -3.0405    4.2849   14.5342 C   0  0  0  0  0  0  0  0  0  0  0  0
   -4.0453    3.4505   15.0602 C   0  0  0  0  0  0  0  0  0  0  0  0
   -3.8909    2.1506   16.1835 S   0  0  0  0  0  0  0  0  0  0  0  0
   -5.5751    1.8960   16.1001 C   0  0  0  0  0  0  0  0  0  0  0  0
   -6.2587    2.6958   15.3053 N   0  0  0  0  0  0  0  0  0  0  0  0
   -5.3888    3.5893   14.7058 C   0  0  0  0  0  0  0  0  0  0  0  0
   -5.7467    4.5972   13.7928 C   0  0  0  0  0  0  0  0  0  0  0  0
   -4.7543    5.4321   13.2641 C   0  0  0  0  0  0  0  0  0  0  0  0
   -5.3110    6.7739   12.0343 Br  0  0  0  0  0  0  0  0  0  0  0  0
   -6.2458    0.5836   17.0875 S   0  0  0  0  0  0  0  0  0  0  0  0
   -5.8362   -0.9009   16.4003 N   0  0  0  0  0  0  0  0  0  0  0  0
   -5.5589    0.6253   18.3596 O   0  0  0  0  0  0  0  0  0  0  0  0
   -7.6851    0.6761   16.9828 O   0  0  0  0  0  0  0  0  0  0  0  0
   -4.8250   -1.0281   16.4433 H   0  0  0  0  0  0  0  0  0  0  0  0
   -6.1402   -0.9204   15.4268 H   0  0  0  0  0  0  0  0  0  0  0  0
   -2.5199    6.1577   13.0468 O   0  0  0  0  0  0  0  0  0  0  0  0
   -2.1927    7.4936   14.9901 C   0  0  0  0  0  0  0  0  0  0  0  0
   -2.5049    7.5080   13.5045 C   0  0  0  0  0  0  0  0  0  0  0  0
 18 19  1  0
 19 17  1  0
 17  1  1  0
  1  2  2  0
  2  3  1  0
  3  4  1  0
  4  5  1  0
  5 11  1  0
 11 12  1  0
 11 13  2  0
 11 14  2  0
  5  6  2  0
  6  7  1  0
  7  8  1  0
  8  9  2  0
  9 10  1  0
  9  1  1  0
  7  3  2  0
 12 15  1  0
 12 16  1  0
M  END
> <minimizedAffinity>
-6.53013

> <CNNscore>
0.8941928744

> <CNNaffinity>
7.1546149254

> <CNN_VS>
6.3976058960

> <CNNaffinity_variance>
0.6205114722

$$$$



 19 20  0  0  0  0  0  0  0  0999 V2000
   -3.0681    4.5411   12.7565 C   0  0  0  0  0  0  0  0  0  0  0  0
   -3.4677    3.1986   12.8062 C   0  0  0  0  0  0  0  0  0  0  0  0
   -4.1177    2.7307   13.9642 C   0  0  0  0  0  0  0  0  0  0  0  0
   -4.7143    1.1480   14.3027 S   0  0  0  0  0  0  0  0  0  0  0  0
   -5.2461    1.6894   15.8298 C   0  0  0  0  0  0  0  0  0  0  0  0
   -5.0214    2.9551   16.1234 N   0  0  0  0  0  0  0  0  0  0  0  0
   -4.3751    3.5584   15.0589 C   0  0  0  0  0  0  0  0  0  0  0  0
   -3.9701    4.9037   14.9995 C   0  0  0  0  0  0  0  0  0  0  0  0
   -3.3229    5.3785   13.8519 C   0  0  0  0  0  0  0  0  0  0  0  0
   -2.8033    7.2096   13.8411 Br  0  0  0  0  0  0  0  0  0  0  0  0
   -6.0488    0.5023   16.8757 S   0  0  0  0  0  0  0  0  0  0  0  0
   -5.8064   -1.0468   16.2548 N   0  0  0  0  0  0  0  0  0  0  0  0
   -5.3537    0.5256   18.1437 O   0  0  0  0  0  0  0  0  0  0  0  0
   -7.4703    0.7455   16.7687 O   0  0  0  0  0  0  0  0  0  0  0  0
   -4.8147   -1.2807   16.3022 H   0  0  0  0  0  0  0  0  0  0  0  0
   -6.1167   -1.0762   15.2836 H   0  0  0  0  0  0  0  0  0  0  0  0
   -2.4286    5.1103   11.6852 O   0  0  0  0  0  0  0  0  0  0  0  0
   -2.4919    4.7201    9.3374 C   0  0  0  0  0  0  0  0  0  0  0  0
   -3.1907    5.3823   10.5113 C   0  0  0  0  0  0  0  0  0  0  0  0
 18 19  1  0
 19 17  1  0
 17  1  1  0
  1  2  2  0
  2  3  1  0
  3  4  1  0
  4  5  1  0
  5 11  1  0
 11 12  1  0
 11 13  2  0
 11 14  2  0
  5  6  2  0
  6  7  1  0
  7  8  1  0
  8  9  2  0
  9 10  1  0
  9  1  1  0
  7  3  2  0
 12 15  1  0
 12 16  1  0
M  END
> <minimizedAffinity>
-6.12598

> <CNNscore>
0.8417290449

> <CNNaffinity>
6.9190464020

> <CNN_VS>
5.8239622116

> <CNNaffinity_variance>
0.6336570382

$$$$



 19 20  0  0  0  0  0  0  0  0999 V2000
   -3.7187    6.5500   12.6302 C   0  0  0  0  0  0  0  0  0  0  0  0
   -4.2892    5.3109   12.3080 C   0  0  0  0  0  0  0  0  0  0  0  0
   -4.2317    4.2741   13.2589 C   0  0  0  0  0  0  0  0  0  0  0  0
   -4.8414    2.6649   13.1400 S   0  0  0  0  0  0  0  0  0  0  0  0
   -4.2640    2.3441   14.7122 C   0  0  0  0  0  0  0  0  0  0  0  0
   -3.6494    3.3318   15.3330 N   0  0  0  0  0  0  0  0  0  0  0  0
   -3.6271    4.4413   14.5064 C   0  0  0  0  0  0  0  0  0  0  0  0
   -3.0575    5.6881   14.8202 C   0  0  0  0  0  0  0  0  0  0  0  0
   -3.1097    6.7256   13.8808 C   0  0  0  0  0  0  0  0  0  0  0  0
   -2.3189    8.3853   14.3734 Br  0  0  0  0  0  0  0  0  0  0  0  0
   -4.5439    0.7171   15.3616 S   0  0  0  0  0  0  0  0  0  0  0  0
   -6.0699    0.6532   16.0763 N   0  0  0  0  0  0  0  0  0  0  0  0
   -4.6080   -0.1793   14.2284 O   0  0  0  0  0  0  0  0  0  0  0  0
   -3.6009    0.5310   16.4421 O   0  0  0  0  0  0  0  0  0  0  0  0
   -6.7860    0.7790   15.3609 H   0  0  0  0  0  0  0  0  0  0  0  0
   -6.1507    1.3946   16.7722 H   0  0  0  0  0  0  0  0  0  0  0  0
   -3.7130    7.6322   11.7880 O   0  0  0  0  0  0  0  0  0  0  0  0
   -5.9901    7.7542   11.1035 C   0  0  0  0  0  0  0  0  0  0  0  0
   -4.5540    7.5960   10.6372 C   0  0  0  0  0  0  0  0  0  0  0  0
 18 19  1  0
 19 17  1  0
 17  1  1  0
  1  2  2  0
  2  3  1  0
  3  4  1  0
  4  5  1  0
  5 11  1  0
 11 12  1  0
 11 13  2  0
 11 14  2  0
  5  6  2  0
  6  7  1  0
  7  8  1  0
  8  9  2  0
  9 10  1  0
  9  1  1  0
  7  3  2  0
 12 15  1  0
 12 16  1  0
M  END
> <minimizedAffinity>
-5.69337

> <CNNscore>
0.6677100062

> <CNNaffinity>
6.3496661186

> <CNN_VS>
4.2397356033

> <CNNaffinity_variance>
0.2674352825

$$$$



 19 20  0  0  0  0  0  0  0  0999 V2000
   -4.6773    6.0118   11.6374 C   0  0  0  0  0  0  0  0  0  0  0  0
   -5.0033    5.7455   12.9743 C   0  0  0  0  0  0  0  0  0  0  0  0
   -4.8357    4.4350   13.4613 C   0  0  0  0  0  0  0  0  0  0  0  0
   -5.1509    3.8223   15.0426 S   0  0  0  0  0  0  0  0  0  0  0  0
   -4.6378    2.2781   14.5321 C   0  0  0  0  0  0  0  0  0  0  0  0
   -4.2468    2.1660   13.2778 N   0  0  0  0  0  0  0  0  0  0  0  0
   -4.3574    3.3981   12.6578 C   0  0  0  0  0  0  0  0  0  0  0  0
   -4.0332    3.6753   11.3178 C   0  0  0  0  0  0  0  0  0  0  0  0
   -4.1965    4.9758   10.8242 C   0  0  0  0  0  0  0  0  0  0  0  0
   -3.7378    5.2782    9.0018 Br  0  0  0  0  0  0  0  0  0  0  0  0
   -4.6784    0.9730   15.7331 S   0  0  0  0  0  0  0  0  0  0  0  0
   -4.5222   -0.5132   14.9518 N   0  0  0  0  0  0  0  0  0  0  0  0
   -3.4881    1.1133   16.5425 O   0  0  0  0  0  0  0  0  0  0  0  0
   -6.0067    0.9734   16.3050 O   0  0  0  0  0  0  0  0  0  0  0  0
   -3.5986   -0.5768   14.5237 H   0  0  0  0  0  0  0  0  0  0  0  0
   -5.2380   -0.5947   14.2298 H   0  0  0  0  0  0  0  0  0  0  0  0
   -4.7978    7.2457   11.0513 O   0  0  0  0  0  0  0  0  0  0  0  0
   -7.0184    8.0565   11.3344 C   0  0  0  0  0  0  0  0  0  0  0  0
   -5.9967    7.5394   10.3376 C   0  0  0  0  0  0  0  0  0  0  0  0
 18 19  1  0
 19 17  1  0
 17  1  1  0
  1  2  2  0
  2  3  1  0
  3  4  1  0
  4  5  1  0
  5 11  1  0
 11 12  1  0
 11 13  2  0
 11 14  2  0
  5  6  2  0
  6  7  1  0
  7  8  1  0
  8  9  2  0
  9 10  1  0
  9  1  1  0
  7  3  2  0
 12 15  1  0
 12 16  1  0
M  END
> <minimizedAffinity>
-6.08433

> <CNNscore>
0.5706579089

> <CNNaffinity>
6.2385573387

> <CNN_VS>
3.5600821972

> <CNNaffinity_variance>
0.2488346845

$$$$



 19 20  0  0  0  0  0  0  0  0999 V2000
   -9.0051   10.6514    7.8685 C   0  0  0  0  0  0  0  0  0  0  0  0
   -9.0254   12.0355    8.0885 C   0  0  0  0  0  0  0  0  0  0  0  0
   -8.0514   12.5983    8.9353 C   0  0  0  0  0  0  0  0  0  0  0  0
   -7.8347   14.2498    9.3836 S   0  0  0  0  0  0  0  0  0  0  0  0
   -6.4954   13.8008   10.3392 C   0  0  0  0  0  0  0  0  0  0  0  0
   -6.1838   12.5198   10.3617 N   0  0  0  0  0  0  0  0  0  0  0  0
   -7.0711   11.8243    9.5594 C   0  0  0  0  0  0  0  0  0  0  0  0
   -7.0591   10.4366    9.3325 C   0  0  0  0  0  0  0  0  0  0  0  0
   -8.0238    9.8674    8.4917 C   0  0  0  0  0  0  0  0  0  0  0  0
   -7.9470    7.9837    8.2301 Br  0  0  0  0  0  0  0  0  0  0  0  0
   -5.6512   15.0956   11.2099 S   0  0  0  0  0  0  0  0  0  0  0  0
   -4.2025   14.4996   11.8344 N   0  0  0  0  0  0  0  0  0  0  0  0
   -5.2718   16.0832   10.2239 O   0  0  0  0  0  0  0  0  0  0  0  0
   -6.4639   15.4241   12.3600 O   0  0  0  0  0  0  0  0  0  0  0  0
   -3.5797   14.2474   11.0670 H   0  0  0  0  0  0  0  0  0  0  0  0
   -4.3916   13.6748   12.4039 H   0  0  0  0  0  0  0  0  0  0  0  0
   -9.8996    9.9907    7.0661 O   0  0  0  0  0  0  0  0  0  0  0  0
  -11.5888   10.4959    5.4662 C   0  0  0  0  0  0  0  0  0  0  0  0
  -10.0953   10.4691    5.7373 C   0  0  0  0  0  0  0  0  0  0  0  0
 18 19  1  0
 19 17  1  0
 17  1  1  0
  1  2  2  0
  2  3  1  0
  3  4  1  0
  4  5  1  0
  5 11  1  0
 11 12  1  0
 11 13  2  0
 11 14  2  0
  5  6  2  0
  6  7  1  0
  7  8  1  0
  8  9  2  0
  9 10  1  0
  9  1  1  0
  7  3  2  0
 12 15  1  0
 12 16  1  0
M  END
> <minimizedAffinity>
-4.58292

> <CNNscore>
0.5117284060

> <CNNaffinity>
4.4484648705

> <CNN_VS>
2.2764058113

> <CNNaffinity_variance>
0.0414204486

$$$$



 19 20  0  0  0  0  0  0  0  0999 V2000
   -3.0320    7.2978   12.8923 C   0  0  0  0  0  0  0  0  0  0  0  0
   -2.3880    8.4613   12.4494 C   0  0  0  0  0  0  0  0  0  0  0  0
   -1.7323    9.2714   13.3961 C   0  0  0  0  0  0  0  0  0  0  0  0
   -0.8673   10.7423   13.1441 S   0  0  0  0  0  0  0  0  0  0  0  0
   -0.5417   10.8218   14.8162 C   0  0  0  0  0  0  0  0  0  0  0  0
   -1.0205    9.8457   15.5622 N   0  0  0  0  0  0  0  0  0  0  0  0
   -1.7040    8.9532   14.7554 C   0  0  0  0  0  0  0  0  0  0  0  0
   -2.3531    7.7840   15.1899 C   0  0  0  0  0  0  0  0  0  0  0  0
   -3.0080    6.9716   14.2557 C   0  0  0  0  0  0  0  0  0  0  0  0
   -3.8648    5.4050   14.9149 Br  0  0  0  0  0  0  0  0  0  0  0  0
    0.4071   12.2059   15.3917 S   0  0  0  0  0  0  0  0  0  0  0  0
   -0.6056   13.5412   15.5791 N   0  0  0  0  0  0  0  0  0  0  0  0
    0.8632   11.8745   16.7235 O   0  0  0  0  0  0  0  0  0  0  0  0
    1.3204   12.5575   14.3270 O   0  0  0  0  0  0  0  0  0  0  0  0
   -1.2792   13.3554   16.3221 H   0  0  0  0  0  0  0  0  0  0  0  0
   -1.1025   13.7163   14.7057 H   0  0  0  0  0  0  0  0  0  0  0  0
   -3.7019    6.4320   12.0664 O   0  0  0  0  0  0  0  0  0  0  0  0
   -3.1855    4.2632   11.2308 C   0  0  0  0  0  0  0  0  0  0  0  0
   -2.9599    5.7541   11.0550 C   0  0  0  0  0  0  0  0  0  0  0  0
 18 19  1  0
 19 17  1  0
 17  1  1  0
  1  2  2  0
  2  3  1  0
  3  4  1  0
  4  5  1  0
  5 11  1  0
 11 12  1  0
 11 13  2  0
 11 14  2  0
  5  6  2  0
  6  7  1  0
  7  8  1  0
  8  9  2  0
  9 10  1  0
  9  1  1  0
  7  3  2  0
 12 15  1  0
 12 16  1  0
M  END
> <minimizedAffinity>
-4.10044

> <CNNscore>
0.3947547376

> <CNNaffinity>
4.0671286583

> <CNN_VS>
1.6055183411

> <CNNaffinity_variance>
1.1415535212

$$$$



 19 20  0  0  0  0  0  0  0  0999 V2000
   -4.3496    4.7879   10.4982 C   0  0  0  0  0  0  0  0  0  0  0  0
   -4.3335    3.4219   10.8116 C   0  0  0  0  0  0  0  0  0  0  0  0
   -4.4444    3.0382   12.1618 C   0  0  0  0  0  0  0  0  0  0  0  0
   -4.4541    1.4504   12.8357 S   0  0  0  0  0  0  0  0  0  0  0  0
   -4.6190    2.1266   14.3926 C   0  0  0  0  0  0  0  0  0  0  0  0
   -4.6687    3.4421   14.4673 N   0  0  0  0  0  0  0  0  0  0  0  0
   -4.5693    3.9716   13.1927 C   0  0  0  0  0  0  0  0  0  0  0  0
   -4.5843    5.3397   12.8682 C   0  0  0  0  0  0  0  0  0  0  0  0
   -4.4746    5.7313   11.5280 C   0  0  0  0  0  0  0  0  0  0  0  0
   -4.5024    7.5991   11.1626 Br  0  0  0  0  0  0  0  0  0  0  0  0
   -4.7078    0.9996   15.7599 S   0  0  0  0  0  0  0  0  0  0  0  0
   -4.7164   -0.5844   15.1815 N   0  0  0  0  0  0  0  0  0  0  0  0
   -3.4703    1.1376   16.4956 O   0  0  0  0  0  0  0  0  0  0  0  0
   -6.0005    1.1945   16.3781 O   0  0  0  0  0  0  0  0  0  0  0  0
   -3.8243   -0.7864   14.7301 H   0  0  0  0  0  0  0  0  0  0  0  0
   -5.4723   -0.6955   14.5057 H   0  0  0  0  0  0  0  0  0  0  0  0
   -4.2493    5.2820    9.2229 O   0  0  0  0  0  0  0  0  0  0  0  0
   -3.2477    5.5189    7.0760 C   0  0  0  0  0  0  0  0  0  0  0  0
   -3.0345    5.0643    8.5087 C   0  0  0  0  0  0  0  0  0  0  0  0
 18 19  1  0
 19 17  1  0
 17  1  1  0
  1  2  2  0
  2  3  1  0
  3  4  1  0
  4  5  1  0
  5 11  1  0
 11 12  1  0
 11 13  2  0
 11 14  2  0
  5  6  2  0
  6  7  1  0
  7  8  1  0
  8  9  2  0
  9 10  1  0
  9  1  1  0
  7  3  2  0
 12 15  1  0
 12 16  1  0
M  END
> <minimizedAffinity>
-6.12860

> <CNNscore>
0.3156381547

> <CNNaffinity>
5.7536959648

> <CNN_VS>
1.8160859346

> <CNNaffinity_variance>
0.0817552879

$$$$



 19 20  0  0  0  0  0  0  0  0999 V2000
   -5.4975    7.1946   10.4608 C   0  0  0  0  0  0  0  0  0  0  0  0
   -6.7187    6.8872    9.8452 C   0  0  0  0  0  0  0  0  0  0  0  0
   -7.4554    7.9293    9.2503 C   0  0  0  0  0  0  0  0  0  0  0  0
   -8.9713    7.8489    8.4312 S   0  0  0  0  0  0  0  0  0  0  0  0
   -8.9007    9.5316    8.1633 C   0  0  0  0  0  0  0  0  0  0  0  0
   -7.8423   10.1642    8.6305 N   0  0  0  0  0  0  0  0  0  0  0  0
   -7.0094    9.2525    9.2547 C   0  0  0  0  0  0  0  0  0  0  0  0
   -5.7831    9.5508    9.8750 C   0  0  0  0  0  0  0  0  0  0  0  0
   -5.0431    8.5210   10.4694 C   0  0  0  0  0  0  0  0  0  0  0  0
   -3.3931    8.9976   11.2900 Br  0  0  0  0  0  0  0  0  0  0  0  0
  -10.2536   10.2693    7.2842 S   0  0  0  0  0  0  0  0  0  0  0  0
  -11.6639    9.3970    7.5908 N   0  0  0  0  0  0  0  0  0  0  0  0
  -10.4694   11.5743    7.8690 O   0  0  0  0  0  0  0  0  0  0  0  0
   -9.9838   10.0886    5.8750 O   0  0  0  0  0  0  0  0  0  0  0  0
  -11.9103    9.4846    8.5767 H   0  0  0  0  0  0  0  0  0  0  0  0
  -11.5118    8.4142    7.3643 H   0  0  0  0  0  0  0  0  0  0  0  0
   -4.6934    6.2669   11.0718 O   0  0  0  0  0  0  0  0  0  0  0  0
   -3.3133    5.2143    9.4421 C   0  0  0  0  0  0  0  0  0  0  0  0
   -4.4701    5.0254   10.4070 C   0  0  0  0  0  0  0  0  0  0  0  0
 18 19  1  0
 19 17  1  0
 17  1  1  0
  1  2  2  0
  2  3  1  0
  3  4  1  0
  4  5  1  0
  5 11  1  0
 11 12  1  0
 11 13  2  0
 11 14  2  0
  5  6  2  0
  6  7  1  0
  7  8  1  0
  8  9  2  0
  9 10  1  0
  9  1  1  0
  7  3  2  0
 12 15  1  0
 12 16  1  0
M  END
> <minimizedAffinity>
-4.39070

> <CNNscore>
0.3058618009

> <CNNaffinity>
4.0284171104

> <CNN_VS>
1.2321388721

> <CNNaffinity_variance>
0.6411516070

$$$$
