


 32 33  0  0  0  0  0  0  0  0999 V2000
   24.8720   27.5915    9.7215 C   0  0  0  0  0  0  0  0  0  0  0  0
   25.3042   26.5615    8.8390 O   0  0  0  0  0  0  0  0  0  0  0  0
   25.0721   28.8908    8.9715 C   0  0  0  0  0  0  0  0  0  0  0  0
   26.0944   29.7490    9.1449 C   0  0  0  0  0  0  0  0  0  0  0  0
   27.2121   29.3829   10.0732 C   0  0  0  0  0  0  0  0  0  0  0  0
   28.1646   30.1408   10.2346 O   0  0  0  0  0  0  0  0  0  0  0  0
   27.1667   28.0050   10.7315 C   0  0  0  0  0  0  0  0  0  0  0  0
   27.7578   27.0206    9.8826 O   0  0  0  0  0  0  0  0  0  0  0  0
   25.7214   27.5935   11.0120 C   0  0  0  0  0  0  0  0  0  0  0  0
   24.7609   26.5750    8.0356 H   0  0  0  0  0  0  0  0  0  0  0  0
   27.2590   26.9681    9.0523 H   0  0  0  0  0  0  0  0  0  0  0  0
   23.3401   27.4103   10.0653 C   0  0  0  0  0  0  0  0  0  0  0  0
   22.2516   28.0419    9.0555 N   0  0  0  0  0  0  0  0  0  0  0  0
   22.8848   28.0559    7.6458 C   0  0  0  0  0  0  0  0  0  0  0  0
   21.0261   27.1560    9.0560 C   0  0  0  0  0  0  0  0  0  0  0  0
   22.0350   29.4582    9.5729 C   0  0  0  0  0  0  0  0  0  0  0  0
   21.0267   28.6498   11.8063 C   0  0  0  0  0  0  0  0  0  0  0  0
   21.1525   29.7595   10.7729 N   0  0  0  0  0  0  0  0  0  0  0  0
   19.7138   29.9592   10.1921 C   0  0  0  0  0  0  0  0  0  0  0  0
   21.4919   31.0816   11.4709 C   0  0  0  0  0  0  0  0  0  0  0  0
   26.2307   31.0412    8.3753 C   0  0  0  0  0  0  0  0  0  0  0  0
   26.3959   32.2585    9.2949 C   0  0  0  0  0  0  0  0  0  0  0  0
   25.0480   32.8981    9.6169 C   0  0  0  0  0  0  0  0  0  0  0  0
   24.5574   32.7840   10.7412 O   0  0  0  0  0  0  0  0  0  0  0  0
   24.5403   33.6313    8.5625 N   0  0  0  0  0  0  0  0  0  0  0  0
   25.0935   33.6605    7.7486 H   0  0  0  0  0  0  0  0  0  0  0  0
   23.3207   34.3450    8.5123 C   0  0  0  0  0  0  0  0  0  0  0  0
   22.0844   33.8104    8.8874 C   0  0  0  0  0  0  0  0  0  0  0  0
   20.9246   34.5902    8.8192 C   0  0  0  0  0  0  0  0  0  0  0  0
   20.9876   35.9083    8.3685 C   0  0  0  0  0  0  0  0  0  0  0  0
   22.2106   36.4467    7.9748 C   0  0  0  0  0  0  0  0  0  0  0  0
   23.3722   35.6686    8.0479 C   0  0  0  0  0  0  0  0  0  0  0  0
 17 18  1  0
 18 19  1  0
 18 20  1  0
 18 16  1  0
 16 13  1  0
 13 14  1  0
 13 15  1  0
 13 12  1  0
 12  1  1  0
  1  2  1  0
  1  3  1  0
  3  4  2  0
  4 21  1  0
 21 22  1  0
 22 23  1  0
 23 24  2  0
 23 25  1  0
 25 27  1  0
 27 28  2  0
 28 29  1  0
 29 30  2  0
 30 31  1  0
 31 32  2  0
  4  5  1  0
  5  6  2  0
  5  7  1  0
  7  8  1  0
  7  9  1  0
  9  1  1  0
 32 27  1  0
  2 10  1  0
 25 26  1  0
  8 11  1  0
M  CHG 1  13   1
M  CHG 1  18   1
M  END
> <minimizedAffinity>
-4.37824

> <CNNscore>
0.2530379891

> <CNNaffinity>
3.6537036896

> <CNN_VS>
0.9245258570

> <CNNaffinity_variance>
1.2079453468

$$$$



 32 33  0  0  0  0  0  0  0  0999 V2000
   25.7141   29.1366    9.1892 C   0  0  0  0  0  0  0  0  0  0  0  0
   26.0450   28.2539    8.1226 O   0  0  0  0  0  0  0  0  0  0  0  0
   26.7317   30.2554    9.1321 C   0  0  0  0  0  0  0  0  0  0  0  0
   27.8124   30.3762    9.9253 C   0  0  0  0  0  0  0  0  0  0  0  0
   28.1390   29.2811   10.8944 C   0  0  0  0  0  0  0  0  0  0  0  0
   29.1293   29.3595   11.6161 O   0  0  0  0  0  0  0  0  0  0  0  0
   27.2547   28.0354   10.8835 C   0  0  0  0  0  0  0  0  0  0  0  0
   27.7155   27.0982    9.9096 O   0  0  0  0  0  0  0  0  0  0  0  0
   25.8105   28.4074   10.5478 C   0  0  0  0  0  0  0  0  0  0  0  0
   25.9793   28.7276    7.2786 H   0  0  0  0  0  0  0  0  0  0  0  0
   27.6711   27.5000    9.0279 H   0  0  0  0  0  0  0  0  0  0  0  0
   24.2643   29.7296    8.9790 C   0  0  0  0  0  0  0  0  0  0  0  0
   23.4255   30.1746   10.2835 N   0  0  0  0  0  0  0  0  0  0  0  0
   22.9336   28.8841   10.9771 C   0  0  0  0  0  0  0  0  0  0  0  0
   24.3479   30.9331   11.2111 C   0  0  0  0  0  0  0  0  0  0  0  0
   22.2566   30.9758    9.7245 C   0  0  0  0  0  0  0  0  0  0  0  0
   20.8418   30.9435   11.8821 C   0  0  0  0  0  0  0  0  0  0  0  0
   21.2554   31.6862   10.6202 N   0  0  0  0  0  0  0  0  0  0  0  0
   19.9528   31.8202    9.7643 C   0  0  0  0  0  0  0  0  0  0  0  0
   21.6551   33.1238   10.9724 C   0  0  0  0  0  0  0  0  0  0  0  0
   28.7851   31.5274    9.8303 C   0  0  0  0  0  0  0  0  0  0  0  0
   28.6833   32.4834   11.0262 C   0  0  0  0  0  0  0  0  0  0  0  0
   27.4927   33.4276   10.8827 C   0  0  0  0  0  0  0  0  0  0  0  0
   26.9368   33.8853   11.8823 O   0  0  0  0  0  0  0  0  0  0  0  0
   27.2059   33.7275    9.5655 N   0  0  0  0  0  0  0  0  0  0  0  0
   27.7897   33.3134    8.8895 H   0  0  0  0  0  0  0  0  0  0  0  0
   26.1738   34.5585    9.0719 C   0  0  0  0  0  0  0  0  0  0  0  0
   26.3691   35.8694    8.6266 C   0  0  0  0  0  0  0  0  0  0  0  0
   25.2936   36.6208    8.1404 C   0  0  0  0  0  0  0  0  0  0  0  0
   24.0119   36.0727    8.1016 C   0  0  0  0  0  0  0  0  0  0  0  0
   23.8012   34.7740    8.5593 C   0  0  0  0  0  0  0  0  0  0  0  0
   24.8779   34.0198    9.0409 C   0  0  0  0  0  0  0  0  0  0  0  0
 17 18  1  0
 18 19  1  0
 18 20  1  0
 18 16  1  0
 16 13  1  0
 13 14  1  0
 13 15  1  0
 13 12  1  0
 12  1  1  0
  1  2  1  0
  1  3  1  0
  3  4  2  0
  4 21  1  0
 21 22  1  0
 22 23  1  0
 23 24  2  0
 23 25  1  0
 25 27  1  0
 27 28  2  0
 28 29  1  0
 29 30  2  0
 30 31  1  0
 31 32  2  0
  4  5  1  0
  5  6  2  0
  5  7  1  0
  7  8  1  0
  7  9  1  0
  9  1  1  0
 32 27  1  0
  2 10  1  0
 25 26  1  0
  8 11  1  0
M  CHG 1  13   1
M  CHG 1  18   1
M  END
> <minimizedAffinity>
-4.45948

> <CNNscore>
0.2369361520

> <CNNaffinity>
4.2617774010

> <CNN_VS>
1.0097690821

> <CNNaffinity_variance>
0.6564869881

$$$$



 32 33  0  0  0  0  0  0  0  0999 V2000
   20.0420   26.6028    1.9551 C   0  0  0  0  0  0  0  0  0  0  0  0
   21.2251   26.2663    1.2384 O   0  0  0  0  0  0  0  0  0  0  0  0
   20.4420   26.6563    3.4137 C   0  0  0  0  0  0  0  0  0  0  0  0
   20.2177   25.6925    4.3262 C   0  0  0  0  0  0  0  0  0  0  0  0
   19.6173   24.3914    3.8885 C   0  0  0  0  0  0  0  0  0  0  0  0
   19.4194   23.4901    4.6986 O   0  0  0  0  0  0  0  0  0  0  0  0
   19.3507   24.1978    2.3967 C   0  0  0  0  0  0  0  0  0  0  0  0
   20.5160   23.7033    1.7360 O   0  0  0  0  0  0  0  0  0  0  0  0
   18.9556   25.5241    1.7473 C   0  0  0  0  0  0  0  0  0  0  0  0
   21.8952   26.9532    1.3800 H   0  0  0  0  0  0  0  0  0  0  0  0
   21.2364   24.3464    1.8265 H   0  0  0  0  0  0  0  0  0  0  0  0
   19.5112   28.0202    1.5003 C   0  0  0  0  0  0  0  0  0  0  0  0
   19.2624   28.2726   -0.0739 N   0  0  0  0  0  0  0  0  0  0  0  0
   20.4159   27.5846   -0.8386 C   0  0  0  0  0  0  0  0  0  0  0  0
   17.9448   27.6384   -0.4590 C   0  0  0  0  0  0  0  0  0  0  0  0
   19.3292   29.7866   -0.2278 C   0  0  0  0  0  0  0  0  0  0  0  0
   17.4276   30.5005   -1.8191 C   0  0  0  0  0  0  0  0  0  0  0  0
   18.0901   30.6363   -0.4561 N   0  0  0  0  0  0  0  0  0  0  0  0
   18.5808   32.1192   -0.3721 C   0  0  0  0  0  0  0  0  0  0  0  0
   17.0360   30.4979    0.6486 C   0  0  0  0  0  0  0  0  0  0  0  0
   20.6277   25.8116    5.7747 C   0  0  0  0  0  0  0  0  0  0  0  0
   22.0692   26.3115    5.9385 C   0  0  0  0  0  0  0  0  0  0  0  0
   22.6629   25.8669    7.2724 C   0  0  0  0  0  0  0  0  0  0  0  0
   22.2631   24.8384    7.8201 O   0  0  0  0  0  0  0  0  0  0  0  0
   23.6892   26.6867    7.6989 N   0  0  0  0  0  0  0  0  0  0  0  0
   23.9169   27.4398    7.1071 H   0  0  0  0  0  0  0  0  0  0  0  0
   24.4519   26.5735    8.8842 C   0  0  0  0  0  0  0  0  0  0  0  0
   24.0161   25.9108   10.0356 C   0  0  0  0  0  0  0  0  0  0  0  0
   24.8399   25.8339   11.1640 C   0  0  0  0  0  0  0  0  0  0  0  0
   26.1030   26.4247   11.1556 C   0  0  0  0  0  0  0  0  0  0  0  0
   26.5413   27.1033   10.0208 C   0  0  0  0  0  0  0  0  0  0  0  0
   25.7197   27.1761    8.8896 C   0  0  0  0  0  0  0  0  0  0  0  0
 17 18  1  0
 18 19  1  0
 18 20  1  0
 18 16  1  0
 16 13  1  0
 13 14  1  0
 13 15  1  0
 13 12  1  0
 12  1  1  0
  1  2  1  0
  1  3  1  0
  3  4  2  0
  4 21  1  0
 21 22  1  0
 22 23  1  0
 23 24  2  0
 23 25  1  0
 25 27  1  0
 27 28  2  0
 28 29  1  0
 29 30  2  0
 30 31  1  0
 31 32  2  0
  4  5  1  0
  5  6  2  0
  5  7  1  0
  7  8  1  0
  7  9  1  0
  9  1  1  0
 32 27  1  0
  2 10  1  0
 25 26  1  0
  8 11  1  0
M  CHG 1  13   1
M  CHG 1  18   1
M  END
> <minimizedAffinity>
-5.99730

> <CNNscore>
0.2231969088

> <CNNaffinity>
4.2759809494

> <CNN_VS>
0.9543857574

> <CNNaffinity_variance>
0.2062188834

$$$$



 32 33  0  0  0  0  0  0  0  0999 V2000
   26.7278   29.4198   10.5203 C   0  0  0  0  0  0  0  0  0  0  0  0
   27.4061   28.8078   11.6121 O   0  0  0  0  0  0  0  0  0  0  0  0
   25.2630   29.0860   10.7028 C   0  0  0  0  0  0  0  0  0  0  0  0
   24.5866   28.1286   10.0412 C   0  0  0  0  0  0  0  0  0  0  0  0
   25.3255   27.2175    9.1090 C   0  0  0  0  0  0  0  0  0  0  0  0
   24.7343   26.3250    8.5076 O   0  0  0  0  0  0  0  0  0  0  0  0
   26.8412   27.3805    9.0087 C   0  0  0  0  0  0  0  0  0  0  0  0
   27.4985   26.6201   10.0230 O   0  0  0  0  0  0  0  0  0  0  0  0
   27.2337   28.8483    9.1771 C   0  0  0  0  0  0  0  0  0  0  0  0
   27.0765   29.1779   12.4459 H   0  0  0  0  0  0  0  0  0  0  0  0
   27.2239   26.9405   10.8964 H   0  0  0  0  0  0  0  0  0  0  0  0
   26.9221   30.9876   10.5650 C   0  0  0  0  0  0  0  0  0  0  0  0
   25.8708   31.9100    9.7604 N   0  0  0  0  0  0  0  0  0  0  0  0
   25.7359   31.3209    8.3380 C   0  0  0  0  0  0  0  0  0  0  0  0
   24.5362   31.8454   10.4685 C   0  0  0  0  0  0  0  0  0  0  0  0
   26.5262   33.2846    9.7243 C   0  0  0  0  0  0  0  0  0  0  0  0
   26.4698   35.6872    8.7850 C   0  0  0  0  0  0  0  0  0  0  0  0
   25.7316   34.5585    9.4895 N   0  0  0  0  0  0  0  0  0  0  0  0
   25.3892   35.1044   10.9149 C   0  0  0  0  0  0  0  0  0  0  0  0
   24.3764   34.3234    8.8123 C   0  0  0  0  0  0  0  0  0  0  0  0
   23.1175   27.8532   10.2563 C   0  0  0  0  0  0  0  0  0  0  0  0
   22.2176   28.8468    9.5096 C   0  0  0  0  0  0  0  0  0  0  0  0
   21.4054   28.1507    8.4209 C   0  0  0  0  0  0  0  0  0  0  0  0
   20.5049   27.3657    8.7217 O   0  0  0  0  0  0  0  0  0  0  0  0
   21.7551   28.5619    7.1497 N   0  0  0  0  0  0  0  0  0  0  0  0
   22.4648   29.2419    7.0939 H   0  0  0  0  0  0  0  0  0  0  0  0
   21.2153   28.1227    5.9188 C   0  0  0  0  0  0  0  0  0  0  0  0
   20.2374   28.8170    5.2002 C   0  0  0  0  0  0  0  0  0  0  0  0
   19.7653   28.3183    3.9811 C   0  0  0  0  0  0  0  0  0  0  0  0
   20.2598   27.1177    3.4724 C   0  0  0  0  0  0  0  0  0  0  0  0
   21.2211   26.4075    4.1878 C   0  0  0  0  0  0  0  0  0  0  0  0
   21.6977   26.9087    5.4050 C   0  0  0  0  0  0  0  0  0  0  0  0
 17 18  1  0
 18 19  1  0
 18 20  1  0
 18 16  1  0
 16 13  1  0
 13 14  1  0
 13 15  1  0
 13 12  1  0
 12  1  1  0
  1  2  1  0
  1  3  1  0
  3  4  2  0
  4 21  1  0
 21 22  1  0
 22 23  1  0
 23 24  2  0
 23 25  1  0
 25 27  1  0
 27 28  2  0
 28 29  1  0
 29 30  2  0
 30 31  1  0
 31 32  2  0
  4  5  1  0
  5  6  2  0
  5  7  1  0
  7  8  1  0
  7  9  1  0
  9  1  1  0
 32 27  1  0
  2 10  1  0
 25 26  1  0
  8 11  1  0
M  CHG 1  13   1
M  CHG 1  18   1
M  END
> <minimizedAffinity>
-5.21789

> <CNNscore>
0.2156604081

> <CNNaffinity>
3.7867558002

> <CNN_VS>
0.8166533113

> <CNNaffinity_variance>
0.9972875118

$$$$



 32 33  0  0  0  0  0  0  0  0999 V2000
   25.6166   31.5240   10.1900 C   0  0  0  0  0  0  0  0  0  0  0  0
   25.3961   31.8522   11.5575 O   0  0  0  0  0  0  0  0  0  0  0  0
   25.4241   30.0264   10.0869 C   0  0  0  0  0  0  0  0  0  0  0  0
   26.4079   29.1095   10.0304 C   0  0  0  0  0  0  0  0  0  0  0  0
   27.8320   29.5490   10.1846 C   0  0  0  0  0  0  0  0  0  0  0  0
   28.7460   28.7296   10.1547 O   0  0  0  0  0  0  0  0  0  0  0  0
   28.0927   31.0269   10.4706 C   0  0  0  0  0  0  0  0  0  0  0  0
   28.0236   31.2892   11.8726 O   0  0  0  0  0  0  0  0  0  0  0  0
   27.0540   31.8995    9.7659 C   0  0  0  0  0  0  0  0  0  0  0  0
   24.4903   31.6101   11.8061 H   0  0  0  0  0  0  0  0  0  0  0  0
   27.1345   31.0775   12.1977 H   0  0  0  0  0  0  0  0  0  0  0  0
   24.5580   32.2572    9.2738 C   0  0  0  0  0  0  0  0  0  0  0  0
   23.8692   33.6051    9.8324 N   0  0  0  0  0  0  0  0  0  0  0  0
   22.8393   33.1854   10.9055 C   0  0  0  0  0  0  0  0  0  0  0  0
   24.9410   34.4659   10.4624 C   0  0  0  0  0  0  0  0  0  0  0  0
   23.1782   34.2072    8.6156 C   0  0  0  0  0  0  0  0  0  0  0  0
   21.1001   35.7177    8.3748 C   0  0  0  0  0  0  0  0  0  0  0  0
   22.5977   35.6116    8.6220 N   0  0  0  0  0  0  0  0  0  0  0  0
   23.2762   36.3482    7.4203 C   0  0  0  0  0  0  0  0  0  0  0  0
   22.9775   36.4297    9.8618 C   0  0  0  0  0  0  0  0  0  0  0  0
   26.1518   27.6260    9.9115 C   0  0  0  0  0  0  0  0  0  0  0  0
   25.4322   27.2563    8.6076 C   0  0  0  0  0  0  0  0  0  0  0  0
   24.3519   26.2052    8.8481 C   0  0  0  0  0  0  0  0  0  0  0  0
   24.3899   25.1262    8.2548 O   0  0  0  0  0  0  0  0  0  0  0  0
   23.4415   26.5876    9.8136 N   0  0  0  0  0  0  0  0  0  0  0  0
   23.5930   27.4678   10.2279 H   0  0  0  0  0  0  0  0  0  0  0  0
   22.3178   25.8659   10.2780 C   0  0  0  0  0  0  0  0  0  0  0  0
   22.3033   25.1112   11.4549 C   0  0  0  0  0  0  0  0  0  0  0  0
   21.1433   24.4358   11.8499 C   0  0  0  0  0  0  0  0  0  0  0  0
   19.9897   24.5015   11.0694 C   0  0  0  0  0  0  0  0  0  0  0  0
   19.9969   25.2353    9.8853 C   0  0  0  0  0  0  0  0  0  0  0  0
   21.1556   25.9156    9.4923 C   0  0  0  0  0  0  0  0  0  0  0  0
 17 18  1  0
 18 19  1  0
 18 20  1  0
 18 16  1  0
 16 13  1  0
 13 14  1  0
 13 15  1  0
 13 12  1  0
 12  1  1  0
  1  2  1  0
  1  3  1  0
  3  4  2  0
  4 21  1  0
 21 22  1  0
 22 23  1  0
 23 24  2  0
 23 25  1  0
 25 27  1  0
 27 28  2  0
 28 29  1  0
 29 30  2  0
 30 31  1  0
 31 32  2  0
  4  5  1  0
  5  6  2  0
  5  7  1  0
  7  8  1  0
  7  9  1  0
  9  1  1  0
 32 27  1  0
  2 10  1  0
 25 26  1  0
  8 11  1  0
M  CHG 1  13   1
M  CHG 1  18   1
M  END
> <minimizedAffinity>
-4.27698

> <CNNscore>
0.1924385577

> <CNNaffinity>
3.6156265736

> <CNN_VS>
0.6957859397

> <CNNaffinity_variance>
1.9564981461

$$$$



 32 33  0  0  0  0  0  0  0  0999 V2000
   20.0363   27.4206   -0.4567 C   0  0  0  0  0  0  0  0  0  0  0  0
   21.3015   27.6242   -1.0765 O   0  0  0  0  0  0  0  0  0  0  0  0
   20.3117   27.3346    1.0290 C   0  0  0  0  0  0  0  0  0  0  0  0
   20.3779   26.2010    1.7519 C   0  0  0  0  0  0  0  0  0  0  0  0
   20.2818   24.8782    1.0549 C   0  0  0  0  0  0  0  0  0  0  0  0
   20.3574   23.8299    1.6898 O   0  0  0  0  0  0  0  0  0  0  0  0
   20.1812   24.8838   -0.4696 C   0  0  0  0  0  0  0  0  0  0  0  0
   21.4804   24.9247   -1.0607 O   0  0  0  0  0  0  0  0  0  0  0  0
   19.3954   26.1040   -0.9494 C   0  0  0  0  0  0  0  0  0  0  0  0
   21.6888   28.4538   -0.7561 H   0  0  0  0  0  0  0  0  0  0  0  0
   21.9326   25.7394   -0.7913 H   0  0  0  0  0  0  0  0  0  0  0  0
   19.0812   28.6458   -0.7471 C   0  0  0  0  0  0  0  0  0  0  0  0
   17.5470   28.3402   -1.1426 N   0  0  0  0  0  0  0  0  0  0  0  0
   17.5210   27.9859   -2.6467 C   0  0  0  0  0  0  0  0  0  0  0  0
   17.0690   27.1571   -0.3311 C   0  0  0  0  0  0  0  0  0  0  0  0
   16.8207   29.6524   -0.8761 C   0  0  0  0  0  0  0  0  0  0  0  0
   18.5789   31.3079   -1.7850 C   0  0  0  0  0  0  0  0  0  0  0  0
   17.1130   30.9183   -1.6645 N   0  0  0  0  0  0  0  0  0  0  0  0
   16.4344   32.0758   -0.8603 C   0  0  0  0  0  0  0  0  0  0  0  0
   16.4532   30.9488   -3.0480 C   0  0  0  0  0  0  0  0  0  0  0  0
   20.6409   26.1810    3.2388 C   0  0  0  0  0  0  0  0  0  0  0  0
   20.3526   27.5329    3.9051 C   0  0  0  0  0  0  0  0  0  0  0  0
   21.0645   27.6523    5.2499 C   0  0  0  0  0  0  0  0  0  0  0  0
   20.8801   28.6370    5.9668 O   0  0  0  0  0  0  0  0  0  0  0  0
   21.8257   26.5400    5.5508 N   0  0  0  0  0  0  0  0  0  0  0  0
   21.8176   25.8158    4.8839 H   0  0  0  0  0  0  0  0  0  0  0  0
   22.6155   26.3173    6.7023 C   0  0  0  0  0  0  0  0  0  0  0  0
   23.7902   27.0172    6.9939 C   0  0  0  0  0  0  0  0  0  0  0  0
   24.5070   26.7433    8.1639 C   0  0  0  0  0  0  0  0  0  0  0  0
   24.0616   25.7625    9.0494 C   0  0  0  0  0  0  0  0  0  0  0  0
   22.9024   25.0457    8.7612 C   0  0  0  0  0  0  0  0  0  0  0  0
   22.1819   25.3230    7.5934 C   0  0  0  0  0  0  0  0  0  0  0  0
 17 18  1  0
 18 19  1  0
 18 20  1  0
 18 16  1  0
 16 13  1  0
 13 14  1  0
 13 15  1  0
 13 12  1  0
 12  1  1  0
  1  2  1  0
  1  3  1  0
  3  4  2  0
  4 21  1  0
 21 22  1  0
 22 23  1  0
 23 24  2  0
 23 25  1  0
 25 27  1  0
 27 28  2  0
 28 29  1  0
 29 30  2  0
 30 31  1  0
 31 32  2  0
  4  5  1  0
  5  6  2  0
  5  7  1  0
  7  8  1  0
  7  9  1  0
  9  1  1  0
 32 27  1  0
  2 10  1  0
 25 26  1  0
  8 11  1  0
M  CHG 1  13   1
M  CHG 1  18   1
M  END
> <minimizedAffinity>
-5.99897

> <CNNscore>
0.1881681085

> <CNNaffinity>
4.2828979492

> <CNN_VS>
0.8059048057

> <CNNaffinity_variance>
0.4265529215

$$$$



 32 33  0  0  0  0  0  0  0  0999 V2000
   26.3290   31.9791   10.0232 C   0  0  0  0  0  0  0  0  0  0  0  0
   26.4504   32.7051   11.2417 O   0  0  0  0  0  0  0  0  0  0  0  0
   25.7913   30.6166   10.4044 C   0  0  0  0  0  0  0  0  0  0  0  0
   26.5169   29.4884   10.5160 C   0  0  0  0  0  0  0  0  0  0  0  0
   28.0058   29.5538   10.3624 C   0  0  0  0  0  0  0  0  0  0  0  0
   28.6914   28.5416   10.4775 O   0  0  0  0  0  0  0  0  0  0  0  0
   28.6389   30.9282   10.1524 C   0  0  0  0  0  0  0  0  0  0  0  0
   28.8969   31.5616   11.4058 O   0  0  0  0  0  0  0  0  0  0  0  0
   27.7070   31.8282    9.3410 C   0  0  0  0  0  0  0  0  0  0  0  0
   25.5773   32.7901   11.6558 H   0  0  0  0  0  0  0  0  0  0  0  0
   28.0611   31.6907   11.8809 H   0  0  0  0  0  0  0  0  0  0  0  0
   25.3068   32.6992    9.0567 C   0  0  0  0  0  0  0  0  0  0  0  0
   24.8449   34.2025    9.4178 N   0  0  0  0  0  0  0  0  0  0  0  0
   23.6507   34.5502    8.5005 C   0  0  0  0  0  0  0  0  0  0  0  0
   24.4041   34.2345   10.8640 C   0  0  0  0  0  0  0  0  0  0  0  0
   26.0593   35.0599    9.0851 C   0  0  0  0  0  0  0  0  0  0  0  0
   25.7292   37.1000    7.5401 C   0  0  0  0  0  0  0  0  0  0  0  0
   25.9744   36.5707    8.9454 N   0  0  0  0  0  0  0  0  0  0  0  0
   27.3850   37.1069    9.3573 C   0  0  0  0  0  0  0  0  0  0  0  0
   24.9932   37.2259    9.9245 C   0  0  0  0  0  0  0  0  0  0  0  0
   25.9184   28.1520   10.8852 C   0  0  0  0  0  0  0  0  0  0  0  0
   25.7981   27.2088    9.6808 C   0  0  0  0  0  0  0  0  0  0  0  0
   24.3554   27.1139    9.1917 C   0  0  0  0  0  0  0  0  0  0  0  0
   23.4497   27.6738    9.8114 O   0  0  0  0  0  0  0  0  0  0  0  0
   24.2405   26.4245    8.0006 N   0  0  0  0  0  0  0  0  0  0  0  0
   25.0799   26.0874    7.6120 H   0  0  0  0  0  0  0  0  0  0  0  0
   23.0610   26.1450    7.2725 C   0  0  0  0  0  0  0  0  0  0  0  0
   22.0027   25.3736    7.7621 C   0  0  0  0  0  0  0  0  0  0  0  0
   20.8633   25.1552    6.9798 C   0  0  0  0  0  0  0  0  0  0  0  0
   20.7737   25.6986    5.6987 C   0  0  0  0  0  0  0  0  0  0  0  0
   21.8292   26.4539    5.1928 C   0  0  0  0  0  0  0  0  0  0  0  0
   22.9672   26.6772    5.9770 C   0  0  0  0  0  0  0  0  0  0  0  0
 17 18  1  0
 18 19  1  0
 18 20  1  0
 18 16  1  0
 16 13  1  0
 13 14  1  0
 13 15  1  0
 13 12  1  0
 12  1  1  0
  1  2  1  0
  1  3  1  0
  3  4  2  0
  4 21  1  0
 21 22  1  0
 22 23  1  0
 23 24  2  0
 23 25  1  0
 25 27  1  0
 27 28  2  0
 28 29  1  0
 29 30  2  0
 30 31  1  0
 31 32  2  0
  4  5  1  0
  5  6  2  0
  5  7  1  0
  7  8  1  0
  7  9  1  0
  9  1  1  0
 32 27  1  0
  2 10  1  0
 25 26  1  0
  8 11  1  0
M  CHG 1  13   1
M  CHG 1  18   1
M  END
> <minimizedAffinity>
-5.01736

> <CNNscore>
0.1779369414

> <CNNaffinity>
4.0017986298

> <CNN_VS>
0.7120677829

> <CNNaffinity_variance>
1.0883204937

$$$$



 32 33  0  0  0  0  0  0  0  0999 V2000
   25.4396   28.7140    9.0620 C   0  0  0  0  0  0  0  0  0  0  0  0
   25.7177   27.6689    8.1362 O   0  0  0  0  0  0  0  0  0  0  0  0
   26.4246   29.8192    8.7475 C   0  0  0  0  0  0  0  0  0  0  0  0
   27.5538   30.0837    9.4308 C   0  0  0  0  0  0  0  0  0  0  0  0
   27.9710   29.1702   10.5428 C   0  0  0  0  0  0  0  0  0  0  0  0
   29.0060   29.3800   11.1692 O   0  0  0  0  0  0  0  0  0  0  0  0
   27.1173   27.9301   10.8020 C   0  0  0  0  0  0  0  0  0  0  0  0
   27.5325   26.8485    9.9673 O   0  0  0  0  0  0  0  0  0  0  0  0
   25.6453   28.2238   10.5126 C   0  0  0  0  0  0  0  0  0  0  0  0
   25.5836   27.9938    7.2321 H   0  0  0  0  0  0  0  0  0  0  0  0
   27.4188   27.0963    9.0364 H   0  0  0  0  0  0  0  0  0  0  0  0
   23.9655   29.2464    8.8596 C   0  0  0  0  0  0  0  0  0  0  0  0
   22.8270   28.1914    8.4188 N   0  0  0  0  0  0  0  0  0  0  0  0
   21.4601   28.8940    8.5817 C   0  0  0  0  0  0  0  0  0  0  0  0
   23.0451   27.8292    6.9669 C   0  0  0  0  0  0  0  0  0  0  0  0
   22.9742   27.0429    9.4086 C   0  0  0  0  0  0  0  0  0  0  0  0
   21.7711   25.0185   10.4633 C   0  0  0  0  0  0  0  0  0  0  0  0
   22.2885   25.7019    9.2062 N   0  0  0  0  0  0  0  0  0  0  0  0
   23.3919   24.7521    8.6341 C   0  0  0  0  0  0  0  0  0  0  0  0
   21.1873   25.7277    8.1398 C   0  0  0  0  0  0  0  0  0  0  0  0
   28.4906   31.2139    9.0768 C   0  0  0  0  0  0  0  0  0  0  0  0
   28.4722   32.3408   10.1182 C   0  0  0  0  0  0  0  0  0  0  0  0
   27.0562   32.8624   10.3472 C   0  0  0  0  0  0  0  0  0  0  0  0
   26.5533   32.8258   11.4713 O   0  0  0  0  0  0  0  0  0  0  0  0
   26.4988   33.4092    9.2082 N   0  0  0  0  0  0  0  0  0  0  0  0
   27.0653   33.4045    8.4030 H   0  0  0  0  0  0  0  0  0  0  0  0
   25.2113   33.9749    9.0604 C   0  0  0  0  0  0  0  0  0  0  0  0
   24.9722   35.3401    8.8763 C   0  0  0  0  0  0  0  0  0  0  0  0
   23.6655   35.8171    8.7254 C   0  0  0  0  0  0  0  0  0  0  0  0
   22.5852   34.9361    8.7648 C   0  0  0  0  0  0  0  0  0  0  0  0
   22.8092   33.5760    8.9657 C   0  0  0  0  0  0  0  0  0  0  0  0
   24.1168   33.0975    9.1114 C   0  0  0  0  0  0  0  0  0  0  0  0
 17 18  1  0
 18 19  1  0
 18 20  1  0
 18 16  1  0
 16 13  1  0
 13 14  1  0
 13 15  1  0
 13 12  1  0
 12  1  1  0
  1  2  1  0
  1  3  1  0
  3  4  2  0
  4 21  1  0
 21 22  1  0
 22 23  1  0
 23 24  2  0
 23 25  1  0
 25 27  1  0
 27 28  2  0
 28 29  1  0
 29 30  2  0
 30 31  1  0
 31 32  2  0
  4  5  1  0
  5  6  2  0
  5  7  1  0
  7  8  1  0
  7  9  1  0
  9  1  1  0
 32 27  1  0
  2 10  1  0
 25 26  1  0
  8 11  1  0
M  CHG 1  13   1
M  CHG 1  18   1
M  END
> <minimizedAffinity>
-5.43607

> <CNNscore>
0.1772798002

> <CNNaffinity>
4.0034909248

> <CNN_VS>
0.7097380757

> <CNNaffinity_variance>
0.9832898974

$$$$



 32 33  0  0  0  0  0  0  0  0999 V2000
   19.0527   24.7123    6.5835 C   0  0  0  0  0  0  0  0  0  0  0  0
   18.9298   23.3210    6.3084 O   0  0  0  0  0  0  0  0  0  0  0  0
   20.4741   24.9163    7.0616 C   0  0  0  0  0  0  0  0  0  0  0  0
   20.8596   25.0565    8.3436 C   0  0  0  0  0  0  0  0  0  0  0  0
   19.8471   24.9002    9.4369 C   0  0  0  0  0  0  0  0  0  0  0  0
   20.1774   25.0057   10.6148 O   0  0  0  0  0  0  0  0  0  0  0  0
   18.4233   24.5164    9.0375 C   0  0  0  0  0  0  0  0  0  0  0  0
   18.2947   23.0985    8.9289 O   0  0  0  0  0  0  0  0  0  0  0  0
   18.0603   25.1374    7.6886 C   0  0  0  0  0  0  0  0  0  0  0  0
   19.5591   23.0720    5.6134 H   0  0  0  0  0  0  0  0  0  0  0  0
   18.8935   22.7714    8.2394 H   0  0  0  0  0  0  0  0  0  0  0  0
   18.8119   25.5536    5.2675 C   0  0  0  0  0  0  0  0  0  0  0  0
   17.9015   26.8821    5.3671 N   0  0  0  0  0  0  0  0  0  0  0  0
   17.5610   27.3163    3.9235 C   0  0  0  0  0  0  0  0  0  0  0  0
   16.6302   26.5377    6.1099 C   0  0  0  0  0  0  0  0  0  0  0  0
   18.8010   27.9049    6.0492 C   0  0  0  0  0  0  0  0  0  0  0  0
   19.8186   30.0198    4.9772 C   0  0  0  0  0  0  0  0  0  0  0  0
   19.9801   28.5513    5.3412 N   0  0  0  0  0  0  0  0  0  0  0  0
   20.1155   27.7924    3.9801 C   0  0  0  0  0  0  0  0  0  0  0  0
   21.3198   28.3387    6.0556 C   0  0  0  0  0  0  0  0  0  0  0  0
   22.2955   25.2740    8.7576 C   0  0  0  0  0  0  0  0  0  0  0  0
   22.5969   26.7426    9.0849 C   0  0  0  0  0  0  0  0  0  0  0  0
   24.0594   27.0835    8.8121 C   0  0  0  0  0  0  0  0  0  0  0  0
   24.8290   26.2240    8.3799 O   0  0  0  0  0  0  0  0  0  0  0  0
   24.3463   28.4162    9.0328 N   0  0  0  0  0  0  0  0  0  0  0  0
   23.5940   28.9787    9.3274 H   0  0  0  0  0  0  0  0  0  0  0  0
   25.5918   29.0694    8.8859 C   0  0  0  0  0  0  0  0  0  0  0  0
   26.8256   28.4765    9.1711 C   0  0  0  0  0  0  0  0  0  0  0  0
   28.0148   29.1900    8.9860 C   0  0  0  0  0  0  0  0  0  0  0  0
   27.9825   30.5046    8.5220 C   0  0  0  0  0  0  0  0  0  0  0  0
   26.7586   31.1125    8.2516 C   0  0  0  0  0  0  0  0  0  0  0  0
   25.5686   30.3973    8.4315 C   0  0  0  0  0  0  0  0  0  0  0  0
 17 18  1  0
 18 19  1  0
 18 20  1  0
 18 16  1  0
 16 13  1  0
 13 14  1  0
 13 15  1  0
 13 12  1  0
 12  1  1  0
  1  2  1  0
  1  3  1  0
  3  4  2  0
  4 21  1  0
 21 22  1  0
 22 23  1  0
 23 24  2  0
 23 25  1  0
 25 27  1  0
 27 28  2  0
 28 29  1  0
 29 30  2  0
 30 31  1  0
 31 32  2  0
  4  5  1  0
  5  6  2  0
  5  7  1  0
  7  8  1  0
  7  9  1  0
  9  1  1  0
 32 27  1  0
  2 10  1  0
 25 26  1  0
  8 11  1  0
M  CHG 1  13   1
M  CHG 1  18   1
M  END
> <minimizedAffinity>
-4.61399

> <CNNscore>
0.1607279330

> <CNNaffinity>
3.5041134357

> <CNN_VS>
0.5632089376

> <CNNaffinity_variance>
1.0248026848

$$$$
