


 36 37  0  0  0  0  0  0  0  0999 V2000
  -18.8390   54.0289   18.9561 C   0  0  0  0  0  0  0  0  0  0  0  0
  -19.6703   53.5620   17.9244 C   0  0  0  0  0  0  0  0  0  0  0  0
  -20.0918   54.4112   16.8900 C   0  0  0  0  0  0  0  0  0  0  0  0
  -20.9163   53.9476   15.8543 C   0  0  0  0  0  0  0  0  0  0  0  0
  -21.3268   54.8032   14.8296 C   0  0  0  0  0  0  0  0  0  0  0  0
  -20.9205   56.1428   14.8181 C   0  0  0  0  0  0  0  0  0  0  0  0
  -20.0944   56.6088   15.8533 C   0  0  0  0  0  0  0  0  0  0  0  0
  -19.6770   55.7595   16.8923 C   0  0  0  0  0  0  0  0  0  0  0  0
  -18.8623   56.2257   17.9372 C   0  0  0  0  0  0  0  0  0  0  0  0
  -18.4505   55.3721   18.9697 C   0  0  0  0  0  0  0  0  0  0  0  0
  -17.4336   56.1588   20.3682 Br  0  0  0  0  0  0  0  0  0  0  0  0
  -17.6903   51.9696   19.5458 N   0  0  0  0  0  0  0  0  0  0  0  0
  -18.4501   53.0262   19.9782 C   0  0  0  0  0  0  0  0  0  0  0  0
  -18.8615   53.1341   21.1281 O   0  0  0  0  0  0  0  0  0  0  0  0
  -17.4485   51.9175   18.5929 H   0  0  0  0  0  0  0  0  0  0  0  0
  -17.2267   50.9185   20.4481 C   0  0  0  0  0  0  0  0  0  0  0  0
  -15.2304   51.9902   21.4182 N   0  0  0  0  0  0  0  0  0  0  0  0
  -15.6966   51.0572   20.5395 C   0  0  0  0  0  0  0  0  0  0  0  0
  -14.9183   50.3578   19.8939 O   0  0  0  0  0  0  0  0  0  0  0  0
  -14.2610   52.1269   21.5228 H   0  0  0  0  0  0  0  0  0  0  0  0
  -15.8631   52.5269   21.9481 H   0  0  0  0  0  0  0  0  0  0  0  0
  -17.6627   49.5404   19.9230 C   0  0  0  0  0  0  0  0  0  0  0  0
  -18.7302   48.8217   20.7420 C   0  0  0  0  0  0  0  0  0  0  0  0
  -18.4100   47.3686   20.9368 C   0  0  0  0  0  0  0  0  0  0  0  0
  -17.9967   46.8737   21.9750 O   0  0  0  0  0  0  0  0  0  0  0  0
  -18.6696   46.6196   19.8538 O   0  0  0  0  0  0  0  0  0  0  0  0
  -18.9858   47.0235   19.0697 H   0  0  0  0  0  0  0  0  0  0  0  0
  -21.3438   57.0624   13.7059 C   0  0  0  0  0  0  0  0  0  0  0  0
  -22.6248   57.5124   13.8042 F   0  0  0  0  0  0  0  0  0  0  0  0
  -21.2261   56.4957   12.4661 F   0  0  0  0  0  0  0  0  0  0  0  0
  -20.4127   58.5921   13.4465 P   0  0  0  0  0  0  0  0  0  0  0  0
  -19.3967   58.6378   12.3471 O   0  0  0  0  0  0  0  0  0  0  0  0
  -21.5084   59.7765   13.3209 O   0  0  0  0  0  0  0  0  0  0  0  0
  -19.7560   59.0530   14.8459 O   0  0  0  0  0  0  0  0  0  0  0  0
  -22.0194   59.6590   12.5048 H   0  0  0  0  0  0  0  0  0  0  0  0
  -19.0499   58.4347   15.0909 H   0  0  0  0  0  0  0  0  0  0  0  0
 17 18  1  0
 18 19  2  0
 18 16  1  0
 16 22  1  0
 22 23  1  0
 23 24  1  0
 24 25  2  0
 24 26  1  0
 16 12  1  0
 12 13  1  0
 13 14  2  0
 13  1  1  0
  1  2  2  0
  2  3  1  0
  3  4  2  0
  4  5  1  0
  5  6  2  0
  6 28  1  0
 28 29  1  0
 28 30  1  0
 28 31  1  0
 31 32  2  0
 31 33  1  0
 31 34  1  0
  6  7  1  0
  7  8  2  0
  8  9  1  0
  9 10  2  0
 10 11  1  0
 10  1  1  0
  8  3  1  0
 17 20  1  0
 17 21  1  0
 26 27  1  0
 12 15  1  0
 33 35  1  0
 34 36  1  0
M  END
> <minimizedAffinity>
-8.78159

> <CNNscore>
0.9307953119

> <CNNaffinity>
6.2664484978

> <CNN_VS>
5.8327808380

> <CNNaffinity_variance>
0.2054131478

$$$$



 36 37  0  0  0  0  0  0  0  0999 V2000
  -18.9263   54.2041   18.7700 C   0  0  0  0  0  0  0  0  0  0  0  0
  -19.7492   53.7191   17.7398 C   0  0  0  0  0  0  0  0  0  0  0  0
  -20.1738   54.5538   16.6949 C   0  0  0  0  0  0  0  0  0  0  0  0
  -20.9898   54.0721   15.6608 C   0  0  0  0  0  0  0  0  0  0  0  0
  -21.4035   54.9134   14.6254 C   0  0  0  0  0  0  0  0  0  0  0  0
  -21.0089   56.2562   14.6016 C   0  0  0  0  0  0  0  0  0  0  0  0
  -20.1912   56.7403   15.6351 C   0  0  0  0  0  0  0  0  0  0  0  0
  -19.7706   55.9056   16.6847 C   0  0  0  0  0  0  0  0  0  0  0  0
  -18.9645   56.3899   17.7280 C   0  0  0  0  0  0  0  0  0  0  0  0
  -18.5495   55.5507   18.7710 C   0  0  0  0  0  0  0  0  0  0  0  0
  -17.5453   56.3609   20.1653 Br  0  0  0  0  0  0  0  0  0  0  0  0
  -18.0244   52.0239   19.3545 N   0  0  0  0  0  0  0  0  0  0  0  0
  -18.5329   53.2156   19.8041 C   0  0  0  0  0  0  0  0  0  0  0  0
  -18.7290   53.4599   20.9894 O   0  0  0  0  0  0  0  0  0  0  0  0
  -17.9528   51.8746   18.3841 H   0  0  0  0  0  0  0  0  0  0  0  0
  -17.5852   50.9682   20.2636 C   0  0  0  0  0  0  0  0  0  0  0  0
  -20.0265   50.6306   20.2268 N   0  0  0  0  0  0  0  0  0  0  0  0
  -18.8573   50.3495   20.8701 C   0  0  0  0  0  0  0  0  0  0  0  0
  -18.8435   49.6150   21.8561 O   0  0  0  0  0  0  0  0  0  0  0  0
  -20.8752   50.2644   20.5656 H   0  0  0  0  0  0  0  0  0  0  0  0
  -20.0217   51.1998   19.4235 H   0  0  0  0  0  0  0  0  0  0  0  0
  -16.6451   51.5487   21.3333 C   0  0  0  0  0  0  0  0  0  0  0  0
  -15.3578   52.1832   20.8166 C   0  0  0  0  0  0  0  0  0  0  0  0
  -14.4067   51.1622   20.2642 C   0  0  0  0  0  0  0  0  0  0  0  0
  -14.5777   49.9526   20.2978 O   0  0  0  0  0  0  0  0  0  0  0  0
  -13.3362   51.7060   19.6644 O   0  0  0  0  0  0  0  0  0  0  0  0
  -13.2282   52.6366   19.6525 H   0  0  0  0  0  0  0  0  0  0  0  0
  -21.4355   57.1604   13.4780 C   0  0  0  0  0  0  0  0  0  0  0  0
  -22.7334   57.5659   13.5436 F   0  0  0  0  0  0  0  0  0  0  0  0
  -21.2672   56.5978   12.2422 F   0  0  0  0  0  0  0  0  0  0  0  0
  -20.5516   58.7213   13.2404 P   0  0  0  0  0  0  0  0  0  0  0  0
  -19.4469   58.7756   12.2306 O   0  0  0  0  0  0  0  0  0  0  0  0
  -21.6818   59.8492   12.9767 O   0  0  0  0  0  0  0  0  0  0  0  0
  -20.0391   59.2598   14.6720 O   0  0  0  0  0  0  0  0  0  0  0  0
  -22.1145   59.6804   12.1252 H   0  0  0  0  0  0  0  0  0  0  0  0
  -19.3311   58.6834   14.9997 H   0  0  0  0  0  0  0  0  0  0  0  0
 17 18  1  0
 18 19  2  0
 18 16  1  0
 16 22  1  0
 22 23  1  0
 23 24  1  0
 24 25  2  0
 24 26  1  0
 16 12  1  0
 12 13  1  0
 13 14  2  0
 13  1  1  0
  1  2  2  0
  2  3  1  0
  3  4  2  0
  4  5  1  0
  5  6  2  0
  6 28  1  0
 28 29  1  0
 28 30  1  0
 28 31  1  0
 31 32  2  0
 31 33  1  0
 31 34  1  0
  6  7  1  0
  7  8  2  0
  8  9  1  0
  9 10  2  0
 10 11  1  0
 10  1  1  0
  8  3  1  0
 17 20  1  0
 17 21  1  0
 26 27  1  0
 12 15  1  0
 33 35  1  0
 34 36  1  0
M  END
> <minimizedAffinity>
-8.99772

> <CNNscore>
0.9258432388

> <CNNaffinity>
6.5308709145

> <CNN_VS>
6.0465626717

> <CNNaffinity_variance>
0.2265228480

$$$$



 36 37  0  0  0  0  0  0  0  0999 V2000
  -18.8366   54.4804   18.8166 C   0  0  0  0  0  0  0  0  0  0  0  0
  -19.6829   53.9484   17.8295 C   0  0  0  0  0  0  0  0  0  0  0  0
  -20.1176   54.7286   16.7474 C   0  0  0  0  0  0  0  0  0  0  0  0
  -20.9570   54.1997   15.7560 C   0  0  0  0  0  0  0  0  0  0  0  0
  -21.3807   54.9870   14.6828 C   0  0  0  0  0  0  0  0  0  0  0  0
  -20.9727   56.3220   14.5776 C   0  0  0  0  0  0  0  0  0  0  0  0
  -20.1317   56.8533   15.5683 C   0  0  0  0  0  0  0  0  0  0  0  0
  -19.7009   56.0732   16.6551 C   0  0  0  0  0  0  0  0  0  0  0  0
  -18.8712   56.6054   17.6557 C   0  0  0  0  0  0  0  0  0  0  0  0
  -18.4461   55.8206   18.7364 C   0  0  0  0  0  0  0  0  0  0  0  0
  -17.4087   56.6954   20.0658 Br  0  0  0  0  0  0  0  0  0  0  0  0
  -18.7392   52.2221   19.7105 N   0  0  0  0  0  0  0  0  0  0  0  0
  -18.4348   53.5462   19.8970 C   0  0  0  0  0  0  0  0  0  0  0  0
  -17.9184   53.9810   20.9205 O   0  0  0  0  0  0  0  0  0  0  0  0
  -19.2106   51.9548   18.8886 H   0  0  0  0  0  0  0  0  0  0  0  0
  -18.3892   51.1939   20.6874 C   0  0  0  0  0  0  0  0  0  0  0  0
  -17.7294   48.9432   19.9299 N   0  0  0  0  0  0  0  0  0  0  0  0
  -17.3771   50.2588   20.0018 C   0  0  0  0  0  0  0  0  0  0  0  0
  -16.3218   50.6545   19.5105 O   0  0  0  0  0  0  0  0  0  0  0  0
  -17.1244   48.2943   19.5030 H   0  0  0  0  0  0  0  0  0  0  0  0
  -18.5886   48.6425   20.3048 H   0  0  0  0  0  0  0  0  0  0  0  0
  -19.6544   50.4533   21.1520 C   0  0  0  0  0  0  0  0  0  0  0  0
  -20.8205   51.3342   21.5887 C   0  0  0  0  0  0  0  0  0  0  0  0
  -22.0878   50.9968   20.8593 C   0  0  0  0  0  0  0  0  0  0  0  0
  -23.0338   51.7555   20.7074 O   0  0  0  0  0  0  0  0  0  0  0  0
  -22.0794   49.7656   20.3252 O   0  0  0  0  0  0  0  0  0  0  0  0
  -21.3416   49.2031   20.4564 H   0  0  0  0  0  0  0  0  0  0  0  0
  -21.4103   57.1673   13.4132 C   0  0  0  0  0  0  0  0  0  0  0  0
  -22.7564   57.3489   13.3237 F   0  0  0  0  0  0  0  0  0  0  0  0
  -21.0053   56.6687   12.2051 F   0  0  0  0  0  0  0  0  0  0  0  0
  -20.7801   58.8588   13.2870 P   0  0  0  0  0  0  0  0  0  0  0  0
  -21.7372   59.9592   12.9463 O   0  0  0  0  0  0  0  0  0  0  0  0
  -19.9739   59.1481   14.6601 O   0  0  0  0  0  0  0  0  0  0  0  0
  -19.5151   58.8765   12.2862 O   0  0  0  0  0  0  0  0  0  0  0  0
  -20.5980   59.1737   15.4022 H   0  0  0  0  0  0  0  0  0  0  0  0
  -19.8181   58.7137   11.3792 H   0  0  0  0  0  0  0  0  0  0  0  0
 17 18  1  0
 18 19  2  0
 18 16  1  0
 16 22  1  0
 22 23  1  0
 23 24  1  0
 24 25  2  0
 24 26  1  0
 16 12  1  0
 12 13  1  0
 13 14  2  0
 13  1  1  0
  1  2  2  0
  2  3  1  0
  3  4  2  0
  4  5  1  0
  5  6  2  0
  6 28  1  0
 28 29  1  0
 28 30  1  0
 28 31  1  0
 31 32  2  0
 31 33  1  0
 31 34  1  0
  6  7  1  0
  7  8  2  0
  8  9  1  0
  9 10  2  0
 10 11  1  0
 10  1  1  0
  8  3  1  0
 17 20  1  0
 17 21  1  0
 26 27  1  0
 12 15  1  0
 33 35  1  0
 34 36  1  0
M  END
> <minimizedAffinity>
-8.50517

> <CNNscore>
0.8214643598

> <CNNaffinity>
6.2945842743

> <CNN_VS>
5.1707768440

> <CNNaffinity_variance>
0.3381730020

$$$$



 36 37  0  0  0  0  0  0  0  0999 V2000
  -18.8842   54.0583   19.0213 C   0  0  0  0  0  0  0  0  0  0  0  0
  -19.5278   53.9145   17.7808 C   0  0  0  0  0  0  0  0  0  0  0  0
  -19.6989   55.0089   16.9197 C   0  0  0  0  0  0  0  0  0  0  0  0
  -20.3349   54.8686   15.6774 C   0  0  0  0  0  0  0  0  0  0  0  0
  -20.4967   55.9661   14.8288 C   0  0  0  0  0  0  0  0  0  0  0  0
  -20.0247   57.2293   15.2045 C   0  0  0  0  0  0  0  0  0  0  0  0
  -19.3868   57.3719   16.4471 C   0  0  0  0  0  0  0  0  0  0  0  0
  -19.2206   56.2767   17.3120 C   0  0  0  0  0  0  0  0  0  0  0  0
  -18.5959   56.4185   18.5620 C   0  0  0  0  0  0  0  0  0  0  0  0
  -18.4341   55.3211   19.4187 C   0  0  0  0  0  0  0  0  0  0  0  0
  -17.6612   55.6757   21.1174 Br  0  0  0  0  0  0  0  0  0  0  0  0
  -17.5465   52.6201   20.4533 N   0  0  0  0  0  0  0  0  0  0  0  0
  -18.7509   52.8208   19.8288 C   0  0  0  0  0  0  0  0  0  0  0  0
  -19.6689   52.0087   19.8592 O   0  0  0  0  0  0  0  0  0  0  0  0
  -16.8328   53.2876   20.3333 H   0  0  0  0  0  0  0  0  0  0  0  0
  -17.2842   51.4517   21.2899 C   0  0  0  0  0  0  0  0  0  0  0  0
  -18.1852   49.3946   20.2744 N   0  0  0  0  0  0  0  0  0  0  0  0
  -17.1270   50.2525   20.3380 C   0  0  0  0  0  0  0  0  0  0  0  0
  -16.1304   50.0738   19.6405 O   0  0  0  0  0  0  0  0  0  0  0  0
  -18.1463   48.6079   19.6838 H   0  0  0  0  0  0  0  0  0  0  0  0
  -18.9880   49.5619   20.8191 H   0  0  0  0  0  0  0  0  0  0  0  0
  -18.4281   51.2565   22.2991 C   0  0  0  0  0  0  0  0  0  0  0  0
  -18.0276   51.2640   23.7709 C   0  0  0  0  0  0  0  0  0  0  0  0
  -16.5573   51.0288   23.9577 C   0  0  0  0  0  0  0  0  0  0  0  0
  -15.6737   51.5351   23.2819 O   0  0  0  0  0  0  0  0  0  0  0  0
  -16.2774   50.2259   24.9962 O   0  0  0  0  0  0  0  0  0  0  0  0
  -16.9733   49.8501   25.4986 H   0  0  0  0  0  0  0  0  0  0  0  0
  -20.1789   58.4095   14.2852 C   0  0  0  0  0  0  0  0  0  0  0  0
  -19.0044   58.9276   13.8321 F   0  0  0  0  0  0  0  0  0  0  0  0
  -20.8666   59.4469   14.8535 F   0  0  0  0  0  0  0  0  0  0  0  0
  -21.1260   58.1984   12.7579 P   0  0  0  0  0  0  0  0  0  0  0  0
  -21.5955   59.4192   12.0283 O   0  0  0  0  0  0  0  0  0  0  0  0
  -20.2542   57.2149   11.8135 O   0  0  0  0  0  0  0  0  0  0  0  0
  -22.3577   57.1945   13.0361 O   0  0  0  0  0  0  0  0  0  0  0  0
  -19.4419   57.6678   11.5377 H   0  0  0  0  0  0  0  0  0  0  0  0
  -23.0074   57.6310   13.6091 H   0  0  0  0  0  0  0  0  0  0  0  0
 17 18  1  0
 18 19  2  0
 18 16  1  0
 16 22  1  0
 22 23  1  0
 23 24  1  0
 24 25  2  0
 24 26  1  0
 16 12  1  0
 12 13  1  0
 13 14  2  0
 13  1  1  0
  1  2  2  0
  2  3  1  0
  3  4  2  0
  4  5  1  0
  5  6  2  0
  6 28  1  0
 28 29  1  0
 28 30  1  0
 28 31  1  0
 31 32  2  0
 31 33  1  0
 31 34  1  0
  6  7  1  0
  7  8  2  0
  8  9  1  0
  9 10  2  0
 10 11  1  0
 10  1  1  0
  8  3  1  0
 17 20  1  0
 17 21  1  0
 26 27  1  0
 12 15  1  0
 33 35  1  0
 34 36  1  0
M  END
> <minimizedAffinity>
-8.27855

> <CNNscore>
0.7975037098

> <CNNaffinity>
5.9719562531

> <CNN_VS>
4.7626571655

> <CNNaffinity_variance>
0.1558036953

$$$$



 36 37  0  0  0  0  0  0  0  0999 V2000
  -18.8627   54.1023   18.9804 C   0  0  0  0  0  0  0  0  0  0  0  0
  -19.5574   53.9466   17.7693 C   0  0  0  0  0  0  0  0  0  0  0  0
  -19.7383   55.0260   16.8912 C   0  0  0  0  0  0  0  0  0  0  0  0
  -20.4254   54.8735   15.6780 C   0  0  0  0  0  0  0  0  0  0  0  0
  -20.5965   55.9560   14.8121 C   0  0  0  0  0  0  0  0  0  0  0  0
  -20.0828   57.2160   15.1411 C   0  0  0  0  0  0  0  0  0  0  0  0
  -19.3938   57.3707   16.3546 C   0  0  0  0  0  0  0  0  0  0  0  0
  -19.2176   56.2907   17.2365 C   0  0  0  0  0  0  0  0  0  0  0  0
  -18.5414   56.4450   18.4579 C   0  0  0  0  0  0  0  0  0  0  0  0
  -18.3700   55.3628   19.3319 C   0  0  0  0  0  0  0  0  0  0  0  0
  -17.5236   55.7361   20.9911 Br  0  0  0  0  0  0  0  0  0  0  0  0
  -19.7502   52.6059   20.6779 N   0  0  0  0  0  0  0  0  0  0  0  0
  -18.7247   52.8796   19.8094 C   0  0  0  0  0  0  0  0  0  0  0  0
  -17.7011   52.2081   19.7429 O   0  0  0  0  0  0  0  0  0  0  0  0
  -20.5142   53.2254   20.7202 H   0  0  0  0  0  0  0  0  0  0  0  0
  -19.7498   51.4285   21.5424 C   0  0  0  0  0  0  0  0  0  0  0  0
  -21.2605   49.6954   20.6540 N   0  0  0  0  0  0  0  0  0  0  0  0
  -21.1531   50.8045   21.4403 C   0  0  0  0  0  0  0  0  0  0  0  0
  -22.1289   51.2411   22.0477 O   0  0  0  0  0  0  0  0  0  0  0  0
  -22.1319   49.2497   20.5480 H   0  0  0  0  0  0  0  0  0  0  0  0
  -20.4666   49.3404   20.1925 H   0  0  0  0  0  0  0  0  0  0  0  0
  -19.3870   51.8295   22.9820 C   0  0  0  0  0  0  0  0  0  0  0  0
  -18.2586   51.0348   23.6316 C   0  0  0  0  0  0  0  0  0  0  0  0
  -16.9242   51.6971   23.4511 C   0  0  0  0  0  0  0  0  0  0  0  0
  -16.7439   52.7763   22.9066 O   0  0  0  0  0  0  0  0  0  0  0  0
  -15.9121   51.0066   23.9989 O   0  0  0  0  0  0  0  0  0  0  0  0
  -16.0769   50.1812   24.4106 H   0  0  0  0  0  0  0  0  0  0  0  0
  -20.2473   58.3795   14.2024 C   0  0  0  0  0  0  0  0  0  0  0  0
  -19.0830   58.9973   13.8621 F   0  0  0  0  0  0  0  0  0  0  0  0
  -21.0737   59.3532   14.6934 F   0  0  0  0  0  0  0  0  0  0  0  0
  -21.0191   58.0891   12.5917 P   0  0  0  0  0  0  0  0  0  0  0  0
  -20.3189   57.2030   11.6081 O   0  0  0  0  0  0  0  0  0  0  0  0
  -22.5316   57.5986   12.8932 O   0  0  0  0  0  0  0  0  0  0  0  0
  -21.3829   59.5090   11.9182 O   0  0  0  0  0  0  0  0  0  0  0  0
  -22.5103   56.7257   13.3158 H   0  0  0  0  0  0  0  0  0  0  0  0
  -20.5655   59.9646   11.6628 H   0  0  0  0  0  0  0  0  0  0  0  0
 17 18  1  0
 18 19  2  0
 18 16  1  0
 16 22  1  0
 22 23  1  0
 23 24  1  0
 24 25  2  0
 24 26  1  0
 16 12  1  0
 12 13  1  0
 13 14  2  0
 13  1  1  0
  1  2  2  0
  2  3  1  0
  3  4  2  0
  4  5  1  0
  5  6  2  0
  6 28  1  0
 28 29  1  0
 28 30  1  0
 28 31  1  0
 31 32  2  0
 31 33  1  0
 31 34  1  0
  6  7  1  0
  7  8  2  0
  8  9  1  0
  9 10  2  0
 10 11  1  0
 10  1  1  0
  8  3  1  0
 17 20  1  0
 17 21  1  0
 26 27  1  0
 12 15  1  0
 33 35  1  0
 34 36  1  0
M  END
> <minimizedAffinity>
-7.92369

> <CNNscore>
0.7228354216

> <CNNaffinity>
5.8204860687

> <CNN_VS>
4.2072534561

> <CNNaffinity_variance>
0.1207335889

$$$$



 36 37  0  0  0  0  0  0  0  0999 V2000
  -18.8332   53.7942   18.9837 C   0  0  0  0  0  0  0  0  0  0  0  0
  -19.5003   53.7421   17.7484 C   0  0  0  0  0  0  0  0  0  0  0  0
  -19.6958   54.8988   16.9787 C   0  0  0  0  0  0  0  0  0  0  0  0
  -20.3553   54.8504   15.7418 C   0  0  0  0  0  0  0  0  0  0  0  0
  -20.5413   56.0093   14.9846 C   0  0  0  0  0  0  0  0  0  0  0  0
  -20.0704   57.2432   15.4486 C   0  0  0  0  0  0  0  0  0  0  0  0
  -19.4091   57.2939   16.6860 C   0  0  0  0  0  0  0  0  0  0  0  0
  -19.2184   56.1361   17.4595 C   0  0  0  0  0  0  0  0  0  0  0  0
  -18.5700   56.1853   18.7045 C   0  0  0  0  0  0  0  0  0  0  0  0
  -18.3839   55.0259   19.4697 C   0  0  0  0  0  0  0  0  0  0  0  0
  -17.5800   55.2536   21.1758 Br  0  0  0  0  0  0  0  0  0  0  0  0
  -17.3919   52.0889   19.9444 N   0  0  0  0  0  0  0  0  0  0  0  0
  -18.6756   52.4987   19.6896 C   0  0  0  0  0  0  0  0  0  0  0  0
  -19.6637   51.8238   19.9566 O   0  0  0  0  0  0  0  0  0  0  0  0
  -16.6447   52.6558   19.6454 H   0  0  0  0  0  0  0  0  0  0  0  0
  -17.0933   50.8416   20.6436 C   0  0  0  0  0  0  0  0  0  0  0  0
  -16.7202   52.3684   22.5422 N   0  0  0  0  0  0  0  0  0  0  0  0
  -17.1819   51.1466   22.1496 C   0  0  0  0  0  0  0  0  0  0  0  0
  -17.6661   50.3657   22.9665 O   0  0  0  0  0  0  0  0  0  0  0  0
  -16.7495   52.6235   23.4926 H   0  0  0  0  0  0  0  0  0  0  0  0
  -16.3576   52.9951   21.8752 H   0  0  0  0  0  0  0  0  0  0  0  0
  -15.7068   50.3216   20.2287 C   0  0  0  0  0  0  0  0  0  0  0  0
  -14.6480   51.3863   19.9603 C   0  0  0  0  0  0  0  0  0  0  0  0
  -13.2552   50.8532   20.1277 C   0  0  0  0  0  0  0  0  0  0  0  0
  -12.5494   51.0291   21.1098 O   0  0  0  0  0  0  0  0  0  0  0  0
  -12.8495   50.0988   19.0945 O   0  0  0  0  0  0  0  0  0  0  0  0
  -13.4098   49.9796   18.3530 H   0  0  0  0  0  0  0  0  0  0  0  0
  -20.2508   58.4901   14.6272 C   0  0  0  0  0  0  0  0  0  0  0  0
  -19.1504   59.2893   14.5678 F   0  0  0  0  0  0  0  0  0  0  0  0
  -21.2792   59.2785   15.0663 F   0  0  0  0  0  0  0  0  0  0  0  0
  -20.7025   58.3195   12.8833 P   0  0  0  0  0  0  0  0  0  0  0  0
  -21.3622   57.0529   12.4319 O   0  0  0  0  0  0  0  0  0  0  0  0
  -21.5702   59.6327   12.5070 O   0  0  0  0  0  0  0  0  0  0  0  0
  -19.4127   58.6442   11.9708 O   0  0  0  0  0  0  0  0  0  0  0  0
  -22.4153   59.6091   12.9826 H   0  0  0  0  0  0  0  0  0  0  0  0
  -18.7581   57.9356   12.0723 H   0  0  0  0  0  0  0  0  0  0  0  0
 17 18  1  0
 18 19  2  0
 18 16  1  0
 16 22  1  0
 22 23  1  0
 23 24  1  0
 24 25  2  0
 24 26  1  0
 16 12  1  0
 12 13  1  0
 13 14  2  0
 13  1  1  0
  1  2  2  0
  2  3  1  0
  3  4  2  0
  4  5  1  0
  5  6  2  0
  6 28  1  0
 28 29  1  0
 28 30  1  0
 28 31  1  0
 31 32  2  0
 31 33  1  0
 31 34  1  0
  6  7  1  0
  7  8  2  0
  8  9  1  0
  9 10  2  0
 10 11  1  0
 10  1  1  0
  8  3  1  0
 17 20  1  0
 17 21  1  0
 26 27  1  0
 12 15  1  0
 33 35  1  0
 34 36  1  0
M  END
> <minimizedAffinity>
-9.21074

> <CNNscore>
0.6930515766

> <CNNaffinity>
6.1024112701

> <CNN_VS>
4.2292857170

> <CNNaffinity_variance>
0.1630515903

$$$$



 36 37  0  0  0  0  0  0  0  0999 V2000
  -18.4806   55.1999   19.1230 C   0  0  0  0  0  0  0  0  0  0  0  0
  -18.4157   56.4412   18.4685 C   0  0  0  0  0  0  0  0  0  0  0  0
  -19.1378   56.6797   17.2893 C   0  0  0  0  0  0  0  0  0  0  0  0
  -19.0813   57.9197   16.6362 C   0  0  0  0  0  0  0  0  0  0  0  0
  -19.8070   58.1444   15.4641 C   0  0  0  0  0  0  0  0  0  0  0  0
  -20.6066   57.1326   14.9196 C   0  0  0  0  0  0  0  0  0  0  0  0
  -20.6655   55.8909   15.5722 C   0  0  0  0  0  0  0  0  0  0  0  0
  -19.9377   55.6504   16.7502 C   0  0  0  0  0  0  0  0  0  0  0  0
  -19.9828   54.4049   17.3980 C   0  0  0  0  0  0  0  0  0  0  0  0
  -19.2539   54.1732   18.5724 C   0  0  0  0  0  0  0  0  0  0  0  0
  -19.3300   52.4147   19.2869 Br  0  0  0  0  0  0  0  0  0  0  0  0
  -17.5318   53.8217   20.8862 N   0  0  0  0  0  0  0  0  0  0  0  0
  -17.6848   55.0829   20.3698 C   0  0  0  0  0  0  0  0  0  0  0  0
  -17.2572   56.0921   20.9191 O   0  0  0  0  0  0  0  0  0  0  0  0
  -17.9563   53.0643   20.4221 H   0  0  0  0  0  0  0  0  0  0  0  0
  -16.7617   53.5616   22.0999 C   0  0  0  0  0  0  0  0  0  0  0  0
  -15.0033   52.5335   20.7121 N   0  0  0  0  0  0  0  0  0  0  0  0
  -15.8287   52.3782   21.7865 C   0  0  0  0  0  0  0  0  0  0  0  0
  -15.7871   51.3559   22.4683 O   0  0  0  0  0  0  0  0  0  0  0  0
  -14.3826   51.8121   20.4599 H   0  0  0  0  0  0  0  0  0  0  0  0
  -15.0281   53.3669   20.1886 H   0  0  0  0  0  0  0  0  0  0  0  0
  -17.7095   53.2690   23.2751 C   0  0  0  0  0  0  0  0  0  0  0  0
  -18.3412   54.4870   23.9416 C   0  0  0  0  0  0  0  0  0  0  0  0
  -19.7283   54.7529   23.4344 C   0  0  0  0  0  0  0  0  0  0  0  0
  -20.2853   54.1210   22.5489 O   0  0  0  0  0  0  0  0  0  0  0  0
  -20.3497   55.7464   24.0888 O   0  0  0  0  0  0  0  0  0  0  0  0
  -19.9004   56.2157   24.7639 H   0  0  0  0  0  0  0  0  0  0  0  0
  -21.4053   57.3768   13.6689 C   0  0  0  0  0  0  0  0  0  0  0  0
  -22.4776   58.1984   13.8371 F   0  0  0  0  0  0  0  0  0  0  0  0
  -21.8834   56.2263   13.1035 F   0  0  0  0  0  0  0  0  0  0  0  0
  -20.5725   58.1115   12.2403 P   0  0  0  0  0  0  0  0  0  0  0  0
  -20.2726   57.2429   11.0576 O   0  0  0  0  0  0  0  0  0  0  0  0
  -21.4304   59.4234   11.8379 O   0  0  0  0  0  0  0  0  0  0  0  0
  -19.2396   58.8702   12.7401 O   0  0  0  0  0  0  0  0  0  0  0  0
  -22.2989   59.1513   11.5023 H   0  0  0  0  0  0  0  0  0  0  0  0
  -18.5852   58.2161   13.0314 H   0  0  0  0  0  0  0  0  0  0  0  0
 17 18  1  0
 18 19  2  0
 18 16  1  0
 16 22  1  0
 22 23  1  0
 23 24  1  0
 24 25  2  0
 24 26  1  0
 16 12  1  0
 12 13  1  0
 13 14  2  0
 13  1  1  0
  1  2  2  0
  2  3  1  0
  3  4  2  0
  4  5  1  0
  5  6  2  0
  6 28  1  0
 28 29  1  0
 28 30  1  0
 28 31  1  0
 31 32  2  0
 31 33  1  0
 31 34  1  0
  6  7  1  0
  7  8  2  0
  8  9  1  0
  9 10  2  0
 10 11  1  0
 10  1  1  0
  8  3  1  0
 17 20  1  0
 17 21  1  0
 26 27  1  0
 12 15  1  0
 33 35  1  0
 34 36  1  0
M  END
> <minimizedAffinity>
-7.68746

> <CNNscore>
0.6781984568

> <CNNaffinity>
5.7648181915

> <CNN_VS>
3.9096908569

> <CNNaffinity_variance>
0.2181524783

$$$$



 36 37  0  0  0  0  0  0  0  0999 V2000
  -18.4388   55.4274   19.0630 C   0  0  0  0  0  0  0  0  0  0  0  0
  -18.4369   56.6726   18.4124 C   0  0  0  0  0  0  0  0  0  0  0  0
  -19.1618   56.8750   17.2283 C   0  0  0  0  0  0  0  0  0  0  0  0
  -19.1681   58.1183   16.5791 C   0  0  0  0  0  0  0  0  0  0  0  0
  -19.8959   58.3068   15.4019 C   0  0  0  0  0  0  0  0  0  0  0  0
  -20.6347   57.2545   14.8483 C   0  0  0  0  0  0  0  0  0  0  0  0
  -20.6307   56.0093   15.4969 C   0  0  0  0  0  0  0  0  0  0  0  0
  -19.8999   55.8052   16.6800 C   0  0  0  0  0  0  0  0  0  0  0  0
  -19.8819   54.5570   17.3238 C   0  0  0  0  0  0  0  0  0  0  0  0
  -19.1504   54.3617   18.5034 C   0  0  0  0  0  0  0  0  0  0  0  0
  -19.1357   52.5994   19.2123 Br  0  0  0  0  0  0  0  0  0  0  0  0
  -17.0650   54.1421   20.6021 N   0  0  0  0  0  0  0  0  0  0  0  0
  -17.6475   55.3501   20.3157 C   0  0  0  0  0  0  0  0  0  0  0  0
  -17.5944   56.3183   21.0660 O   0  0  0  0  0  0  0  0  0  0  0  0
  -17.2022   53.3902   19.9816 H   0  0  0  0  0  0  0  0  0  0  0  0
  -16.2482   53.9308   21.7946 C   0  0  0  0  0  0  0  0  0  0  0  0
  -18.0751   52.5864   22.7591 N   0  0  0  0  0  0  0  0  0  0  0  0
  -17.2208   53.6323   22.9495 C   0  0  0  0  0  0  0  0  0  0  0  0
  -17.2254   54.2632   24.0048 O   0  0  0  0  0  0  0  0  0  0  0  0
  -18.7218   52.3450   23.4610 H   0  0  0  0  0  0  0  0  0  0  0  0
  -18.0450   52.0728   21.9197 H   0  0  0  0  0  0  0  0  0  0  0  0
  -15.3759   55.1682   22.0643 C   0  0  0  0  0  0  0  0  0  0  0  0
  -13.8893   55.0159   21.7583 C   0  0  0  0  0  0  0  0  0  0  0  0
  -13.4021   56.0546   20.7909 C   0  0  0  0  0  0  0  0  0  0  0  0
  -14.0826   56.9593   20.3303 O   0  0  0  0  0  0  0  0  0  0  0  0
  -12.0977   55.9352   20.4985 O   0  0  0  0  0  0  0  0  0  0  0  0
  -11.5979   55.2323   20.8648 H   0  0  0  0  0  0  0  0  0  0  0  0
  -21.4358   57.4587   13.5920 C   0  0  0  0  0  0  0  0  0  0  0  0
  -22.5087   58.2841   13.7363 F   0  0  0  0  0  0  0  0  0  0  0  0
  -21.9139   56.2906   13.0638 F   0  0  0  0  0  0  0  0  0  0  0  0
  -20.6063   58.1490   12.1395 P   0  0  0  0  0  0  0  0  0  0  0  0
  -20.3465   57.2543   10.9669 O   0  0  0  0  0  0  0  0  0  0  0  0
  -21.4365   59.4760   11.7286 O   0  0  0  0  0  0  0  0  0  0  0  0
  -19.2471   58.8810   12.6073 O   0  0  0  0  0  0  0  0  0  0  0  0
  -22.3166   59.2211   11.4103 H   0  0  0  0  0  0  0  0  0  0  0  0
  -18.6053   58.2150   12.8996 H   0  0  0  0  0  0  0  0  0  0  0  0
 17 18  1  0
 18 19  2  0
 18 16  1  0
 16 22  1  0
 22 23  1  0
 23 24  1  0
 24 25  2  0
 24 26  1  0
 16 12  1  0
 12 13  1  0
 13 14  2  0
 13  1  1  0
  1  2  2  0
  2  3  1  0
  3  4  2  0
  4  5  1  0
  5  6  2  0
  6 28  1  0
 28 29  1  0
 28 30  1  0
 28 31  1  0
 31 32  2  0
 31 33  1  0
 31 34  1  0
  6  7  1  0
  7  8  2  0
  8  9  1  0
  9 10  2  0
 10 11  1  0
 10  1  1  0
  8  3  1  0
 17 20  1  0
 17 21  1  0
 26 27  1  0
 12 15  1  0
 33 35  1  0
 34 36  1  0
M  END
> <minimizedAffinity>
-7.87580

> <CNNscore>
0.6770115495

> <CNNaffinity>
5.8086571693

> <CNN_VS>
3.9325280190

> <CNNaffinity_variance>
0.1275309175

$$$$



 36 37  0  0  0  0  0  0  0  0999 V2000
  -18.8744   53.8732   18.8469 C   0  0  0  0  0  0  0  0  0  0  0  0
  -19.6678   53.4489   17.7680 C   0  0  0  0  0  0  0  0  0  0  0  0
  -20.0794   54.3467   16.7713 C   0  0  0  0  0  0  0  0  0  0  0  0
  -20.8659   53.9261   15.6888 C   0  0  0  0  0  0  0  0  0  0  0  0
  -21.2669   54.8300   14.7024 C   0  0  0  0  0  0  0  0  0  0  0  0
  -20.8887   56.1757   14.7770 C   0  0  0  0  0  0  0  0  0  0  0  0
  -20.1006   56.5988   15.8591 C   0  0  0  0  0  0  0  0  0  0  0  0
  -19.6932   55.7006   16.8604 C   0  0  0  0  0  0  0  0  0  0  0  0
  -18.9168   56.1230   17.9519 C   0  0  0  0  0  0  0  0  0  0  0  0
  -18.5147   55.2208   18.9462 C   0  0  0  0  0  0  0  0  0  0  0  0
  -17.5523   55.9472   20.4142 Br  0  0  0  0  0  0  0  0  0  0  0  0
  -17.2475   52.9315   20.3879 N   0  0  0  0  0  0  0  0  0  0  0  0
  -18.4918   52.8223   19.8219 C   0  0  0  0  0  0  0  0  0  0  0  0
  -19.2490   51.8821   20.0359 O   0  0  0  0  0  0  0  0  0  0  0  0
  -16.6690   53.6821   20.1211 H   0  0  0  0  0  0  0  0  0  0  0  0
  -16.7493   51.9742   21.3725 C   0  0  0  0  0  0  0  0  0  0  0  0
  -16.6450   51.8495   23.8318 N   0  0  0  0  0  0  0  0  0  0  0  0
  -17.1668   52.5048   22.7556 C   0  0  0  0  0  0  0  0  0  0  0  0
  -17.8995   53.4802   22.9085 O   0  0  0  0  0  0  0  0  0  0  0  0
  -16.8739   52.1408   24.7440 H   0  0  0  0  0  0  0  0  0  0  0  0
  -16.0395   51.0851   23.6966 H   0  0  0  0  0  0  0  0  0  0  0  0
  -15.2252   51.8203   21.2363 C   0  0  0  0  0  0  0  0  0  0  0  0
  -14.7400   51.0349   20.0220 C   0  0  0  0  0  0  0  0  0  0  0  0
  -13.2870   50.6742   20.1260 C   0  0  0  0  0  0  0  0  0  0  0  0
  -12.5743   50.9025   21.0922 O   0  0  0  0  0  0  0  0  0  0  0  0
  -12.8278   50.0126   19.0524 O   0  0  0  0  0  0  0  0  0  0  0  0
  -13.3947   49.8502   18.3243 H   0  0  0  0  0  0  0  0  0  0  0  0
  -21.3015   57.1481   13.7064 C   0  0  0  0  0  0  0  0  0  0  0  0
  -22.6258   57.4631   13.7122 F   0  0  0  0  0  0  0  0  0  0  0  0
  -21.0126   56.7103   12.4427 F   0  0  0  0  0  0  0  0  0  0  0  0
  -20.5142   58.7769   13.6669 P   0  0  0  0  0  0  0  0  0  0  0  0
  -19.7681   59.2445   14.8784 O   0  0  0  0  0  0  0  0  0  0  0  0
  -19.6004   58.8088   12.3316 O   0  0  0  0  0  0  0  0  0  0  0  0
  -21.6021   59.8769   13.2104 O   0  0  0  0  0  0  0  0  0  0  0  0
  -18.8652   58.1834   12.4279 H   0  0  0  0  0  0  0  0  0  0  0  0
  -22.2579   59.9950   13.9152 H   0  0  0  0  0  0  0  0  0  0  0  0
 17 18  1  0
 18 19  2  0
 18 16  1  0
 16 22  1  0
 22 23  1  0
 23 24  1  0
 24 25  2  0
 24 26  1  0
 16 12  1  0
 12 13  1  0
 13 14  2  0
 13  1  1  0
  1  2  2  0
  2  3  1  0
  3  4  2  0
  4  5  1  0
  5  6  2  0
  6 28  1  0
 28 29  1  0
 28 30  1  0
 28 31  1  0
 31 32  2  0
 31 33  1  0
 31 34  1  0
  6  7  1  0
  7  8  2  0
  8  9  1  0
  9 10  2  0
 10 11  1  0
 10  1  1  0
  8  3  1  0
 17 20  1  0
 17 21  1  0
 26 27  1  0
 12 15  1  0
 33 35  1  0
 34 36  1  0
M  END
> <minimizedAffinity>
-8.91294

> <CNNscore>
0.6554795504

> <CNNaffinity>
6.0395760536

> <CNN_VS>
3.9588186741

> <CNNaffinity_variance>
0.1097525284

$$$$
