


 15 15  0  0  0  0  0  0  0  0999 V2000
  -36.2491    4.7826   13.0017 C   0  0  0  0  0  0  0  0  0  0  0  0
  -35.8659    4.4985   11.6541 C   0  0  0  0  0  0  0  0  0  0  0  0
  -36.8079    3.7484   11.0032 C   0  0  0  0  0  0  0  0  0  0  0  0
  -36.6744    3.3546    9.7266 F   0  0  0  0  0  0  0  0  0  0  0  0
  -38.1426    3.3727   11.9627 S   0  0  0  0  0  0  0  0  0  0  0  0
  -37.4863    4.2197   13.3049 C   0  0  0  0  0  0  0  0  0  0  0  0
  -33.7829    6.1891   15.4563 C   0  0  0  0  0  0  0  0  0  0  0  0
  -34.2934    5.1791   14.4597 C   0  0  0  0  0  0  0  0  0  0  0  0
  -33.6244    4.1961   14.1591 O   0  0  0  0  0  0  0  0  0  0  0  0
  -35.5296    5.5183   13.9459 N   0  0  0  0  0  0  0  0  0  0  0  0
  -35.9394    6.3512   14.2738 H   0  0  0  0  0  0  0  0  0  0  0  0
  -38.1854    4.3007   14.5686 C   0  0  0  0  0  0  0  0  0  0  0  0
  -37.6651    4.3335   15.6775 O   0  0  0  0  0  0  0  0  0  0  0  0
  -39.5300    4.3407   14.4518 O   0  0  0  0  0  0  0  0  0  0  0  0
  -39.9275    4.3156   13.6037 H   0  0  0  0  0  0  0  0  0  0  0  0
  7  8  1  0
  8  9  2  0
  8 10  1  0
 10  1  1  0
  1  2  1  0
  2  3  2  0
  3  4  1  0
  3  5  1  0
  5  6  1  0
  6 12  1  0
 12 13  2  0
 12 14  1  0
  6  1  2  0
 10 11  1  0
 14 15  1  0
M  END
> <minimizedAffinity>
-5.01055

> <CNNscore>
0.7166813016

> <CNNaffinity>
3.0515983105

> <CNN_VS>
2.1870234013

> <CNNaffinity_variance>
0.6957861781

$$$$



 15 15  0  0  0  0  0  0  0  0999 V2000
  -36.7716    5.1463   14.6372 C   0  0  0  0  0  0  0  0  0  0  0  0
  -37.3864    6.4251   14.4628 C   0  0  0  0  0  0  0  0  0  0  0  0
  -37.0134    7.3079   15.4402 C   0  0  0  0  0  0  0  0  0  0  0  0
  -37.4593    8.5734   15.4911 F   0  0  0  0  0  0  0  0  0  0  0  0
  -35.9448    6.6474   16.5649 S   0  0  0  0  0  0  0  0  0  0  0  0
  -35.9496    5.1296   15.7612 C   0  0  0  0  0  0  0  0  0  0  0  0
  -36.5853    2.4148   12.0703 C   0  0  0  0  0  0  0  0  0  0  0  0
  -36.1663    3.7096   12.7197 C   0  0  0  0  0  0  0  0  0  0  0  0
  -35.2249    4.3605   12.2787 O   0  0  0  0  0  0  0  0  0  0  0  0
  -36.9283    4.0180   13.8293 N   0  0  0  0  0  0  0  0  0  0  0  0
  -37.6445    3.3875   14.0720 H   0  0  0  0  0  0  0  0  0  0  0  0
  -35.1715    4.0104   16.2453 C   0  0  0  0  0  0  0  0  0  0  0  0
  -35.0360    3.6823   17.4180 O   0  0  0  0  0  0  0  0  0  0  0  0
  -34.5631    3.3010   15.2707 O   0  0  0  0  0  0  0  0  0  0  0  0
  -34.6669    3.5522   14.3740 H   0  0  0  0  0  0  0  0  0  0  0  0
  7  8  1  0
  8  9  2  0
  8 10  1  0
 10  1  1  0
  1  2  1  0
  2  3  2  0
  3  4  1  0
  3  5  1  0
  5  6  1  0
  6 12  1  0
 12 13  2  0
 12 14  1  0
  6  1  2  0
 10 11  1  0
 14 15  1  0
M  END
> <minimizedAffinity>
-4.69757

> <CNNscore>
0.6959039569

> <CNNaffinity>
3.1038768291

> <CNN_VS>
2.1600000858

> <CNNaffinity_variance>
0.5860807896

$$$$



 15 15  0  0  0  0  0  0  0  0999 V2000
  -37.5686    4.5786   15.5598 C   0  0  0  0  0  0  0  0  0  0  0  0
  -38.8002    5.2548   15.8237 C   0  0  0  0  0  0  0  0  0  0  0  0
  -38.7651    5.9334   17.0119 C   0  0  0  0  0  0  0  0  0  0  0  0
  -39.8035    6.6457   17.4779 F   0  0  0  0  0  0  0  0  0  0  0  0
  -37.2949    5.7835   17.8239 S   0  0  0  0  0  0  0  0  0  0  0  0
  -36.6485    4.7857   16.5845 C   0  0  0  0  0  0  0  0  0  0  0  0
  -36.7499    3.1607   12.1827 C   0  0  0  0  0  0  0  0  0  0  0  0
  -37.0866    4.2616   13.1567 C   0  0  0  0  0  0  0  0  0  0  0  0
  -37.1598    5.4291   12.7882 O   0  0  0  0  0  0  0  0  0  0  0  0
  -37.2580    3.7960   14.4456 N   0  0  0  0  0  0  0  0  0  0  0  0
  -37.1520    2.8282   14.5916 H   0  0  0  0  0  0  0  0  0  0  0  0
  -35.3039    4.2575   16.6574 C   0  0  0  0  0  0  0  0  0  0  0  0
  -34.8717    3.5079   17.5250 O   0  0  0  0  0  0  0  0  0  0  0  0
  -34.4988    4.6619   15.6516 O   0  0  0  0  0  0  0  0  0  0  0  0
  -34.8297    5.2351   14.9883 H   0  0  0  0  0  0  0  0  0  0  0  0
  7  8  1  0
  8  9  2  0
  8 10  1  0
 10  1  1  0
  1  2  1  0
  2  3  2  0
  3  4  1  0
  3  5  1  0
  5  6  1  0
  6 12  1  0
 12 13  2  0
 12 14  1  0
  6  1  2  0
 10 11  1  0
 14 15  1  0
M  END
> <minimizedAffinity>
-4.55104

> <CNNscore>
0.6872462034

> <CNNaffinity>
3.1538665295

> <CNN_VS>
2.1674828529

> <CNNaffinity_variance>
0.4237926006

$$$$



 15 15  0  0  0  0  0  0  0  0999 V2000
  -36.6865    5.1443   14.4064 C   0  0  0  0  0  0  0  0  0  0  0  0
  -36.7293    4.9499   12.9908 C   0  0  0  0  0  0  0  0  0  0  0  0
  -35.6298    4.2735   12.5353 C   0  0  0  0  0  0  0  0  0  0  0  0
  -35.4422    3.9707   11.2408 F   0  0  0  0  0  0  0  0  0  0  0  0
  -34.5436    3.8633   13.7582 S   0  0  0  0  0  0  0  0  0  0  0  0
  -35.5324    4.5935   14.9577 C   0  0  0  0  0  0  0  0  0  0  0  0
  -39.5446    6.1628   16.6154 C   0  0  0  0  0  0  0  0  0  0  0  0
  -38.7064    5.1860   15.8298 C   0  0  0  0  0  0  0  0  0  0  0  0
  -38.9799    3.9905   15.8140 O   0  0  0  0  0  0  0  0  0  0  0  0
  -37.6379    5.7913   15.1980 N   0  0  0  0  0  0  0  0  0  0  0  0
  -37.5382    6.7636   15.3159 H   0  0  0  0  0  0  0  0  0  0  0  0
  -35.1541    4.6005   16.3539 C   0  0  0  0  0  0  0  0  0  0  0  0
  -35.0255    5.5942   17.0592 O   0  0  0  0  0  0  0  0  0  0  0  0
  -34.9363    3.3723   16.8709 O   0  0  0  0  0  0  0  0  0  0  0  0
  -35.0348    2.6127   16.3313 H   0  0  0  0  0  0  0  0  0  0  0  0
  7  8  1  0
  8  9  2  0
  8 10  1  0
 10  1  1  0
  1  2  1  0
  2  3  2  0
  3  4  1  0
  3  5  1  0
  5  6  1  0
  6 12  1  0
 12 13  2  0
 12 14  1  0
  6  1  2  0
 10 11  1  0
 14 15  1  0
M  END
> <minimizedAffinity>
-4.86994

> <CNNscore>
0.6805434227

> <CNNaffinity>
2.9845476151

> <CNN_VS>
2.0311143398

> <CNNaffinity_variance>
0.5859400630

$$$$



 15 15  0  0  0  0  0  0  0  0999 V2000
  -36.3525    5.1532   13.5662 C   0  0  0  0  0  0  0  0  0  0  0  0
  -37.5290    5.0980   12.7559 C   0  0  0  0  0  0  0  0  0  0  0  0
  -37.5850    3.9480   12.0156 C   0  0  0  0  0  0  0  0  0  0  0  0
  -38.5952    3.6669   11.1771 F   0  0  0  0  0  0  0  0  0  0  0  0
  -36.2646    2.9288   12.2633 S   0  0  0  0  0  0  0  0  0  0  0  0
  -35.5645    4.0183   13.3913 C   0  0  0  0  0  0  0  0  0  0  0  0
  -35.8145    7.5320   16.4187 C   0  0  0  0  0  0  0  0  0  0  0  0
  -36.4144    6.3262   15.7405 C   0  0  0  0  0  0  0  0  0  0  0  0
  -37.1816    5.5814   16.3413 O   0  0  0  0  0  0  0  0  0  0  0  0
  -35.9769    6.1765   14.4392 N   0  0  0  0  0  0  0  0  0  0  0  0
  -35.3453    6.8498   14.0972 H   0  0  0  0  0  0  0  0  0  0  0  0
  -34.3066    3.7314   14.0454 C   0  0  0  0  0  0  0  0  0  0  0  0
  -33.4038    4.5338   14.2516 O   0  0  0  0  0  0  0  0  0  0  0  0
  -34.1731    2.4476   14.4418 O   0  0  0  0  0  0  0  0  0  0  0  0
  -34.8636    1.8343   14.2839 H   0  0  0  0  0  0  0  0  0  0  0  0
  7  8  1  0
  8  9  2  0
  8 10  1  0
 10  1  1  0
  1  2  1  0
  2  3  2  0
  3  4  1  0
  3  5  1  0
  5  6  1  0
  6 12  1  0
 12 13  2  0
 12 14  1  0
  6  1  2  0
 10 11  1  0
 14 15  1  0
M  END
> <minimizedAffinity>
-4.72816

> <CNNscore>
0.6631370187

> <CNNaffinity>
3.0419864655

> <CNN_VS>
2.0172538757

> <CNNaffinity_variance>
0.7599525452

$$$$



 15 15  0  0  0  0  0  0  0  0999 V2000
  -34.3192    5.9028   18.5172 C   0  0  0  0  0  0  0  0  0  0  0  0
  -34.1875    6.3016   17.1507 C   0  0  0  0  0  0  0  0  0  0  0  0
  -35.1325    5.7132   16.3543 C   0  0  0  0  0  0  0  0  0  0  0  0
  -35.2132    5.9319   15.0320 F   0  0  0  0  0  0  0  0  0  0  0  0
  -36.1767    4.6930   17.1984 S   0  0  0  0  0  0  0  0  0  0  0  0
  -35.3789    5.0149   18.6849 C   0  0  0  0  0  0  0  0  0  0  0  0
  -31.8626    6.2819   21.3291 C   0  0  0  0  0  0  0  0  0  0  0  0
  -32.5394    5.5530   20.1957 C   0  0  0  0  0  0  0  0  0  0  0  0
  -32.1875    4.4232   19.8733 O   0  0  0  0  0  0  0  0  0  0  0  0
  -33.5272    6.3075   19.5940 N   0  0  0  0  0  0  0  0  0  0  0  0
  -33.6871    7.2091   19.9556 H   0  0  0  0  0  0  0  0  0  0  0  0
  -35.8063    4.4050   19.9249 C   0  0  0  0  0  0  0  0  0  0  0  0
  -35.6659    3.2274   20.2331 O   0  0  0  0  0  0  0  0  0  0  0  0
  -36.4078    5.2599   20.7796 O   0  0  0  0  0  0  0  0  0  0  0  0
  -36.5150    6.1603   20.5436 H   0  0  0  0  0  0  0  0  0  0  0  0
  7  8  1  0
  8  9  2  0
  8 10  1  0
 10  1  1  0
  1  2  1  0
  2  3  2  0
  3  4  1  0
  3  5  1  0
  5  6  1  0
  6 12  1  0
 12 13  2  0
 12 14  1  0
  6  1  2  0
 10 11  1  0
 14 15  1  0
M  END
> <minimizedAffinity>
-5.89806

> <CNNscore>
0.6574416757

> <CNNaffinity>
3.0359191895

> <CNN_VS>
1.9959398508

> <CNNaffinity_variance>
1.3042503595

$$$$



 15 15  0  0  0  0  0  0  0  0999 V2000
  -37.0236    4.6238   10.3372 C   0  0  0  0  0  0  0  0  0  0  0  0
  -35.6966    4.7017   10.8633 C   0  0  0  0  0  0  0  0  0  0  0  0
  -35.5344    3.8975   11.9591 C   0  0  0  0  0  0  0  0  0  0  0  0
  -34.3749    3.7998   12.6289 F   0  0  0  0  0  0  0  0  0  0  0  0
  -36.9302    3.0491   12.3779 S   0  0  0  0  0  0  0  0  0  0  0  0
  -37.8110    3.7469   11.0790 C   0  0  0  0  0  0  0  0  0  0  0  0
  -37.6446    6.4796    7.1347 C   0  0  0  0  0  0  0  0  0  0  0  0
  -36.7920    5.7964    8.1741 C   0  0  0  0  0  0  0  0  0  0  0  0
  -35.5787    5.6945    8.0266 O   0  0  0  0  0  0  0  0  0  0  0  0
  -37.5338    5.3073    9.2313 N   0  0  0  0  0  0  0  0  0  0  0  0
  -38.5070    5.4532    9.2030 H   0  0  0  0  0  0  0  0  0  0  0  0
  -39.1997    3.4204   10.8399 C   0  0  0  0  0  0  0  0  0  0  0  0
  -40.1320    3.6398   11.6040 O   0  0  0  0  0  0  0  0  0  0  0  0
  -39.4271    2.8215    9.6512 O   0  0  0  0  0  0  0  0  0  0  0  0
  -38.7139    2.6539    9.0671 H   0  0  0  0  0  0  0  0  0  0  0  0
  7  8  1  0
  8  9  2  0
  8 10  1  0
 10  1  1  0
  1  2  1  0
  2  3  2  0
  3  4  1  0
  3  5  1  0
  5  6  1  0
  6 12  1  0
 12 13  2  0
 12 14  1  0
  6  1  2  0
 10 11  1  0
 14 15  1  0
M  END
> <minimizedAffinity>
-4.43537

> <CNNscore>
0.6521571279

> <CNNaffinity>
3.1303627491

> <CNN_VS>
2.0414884090

> <CNNaffinity_variance>
0.5604038835

$$$$



 15 15  0  0  0  0  0  0  0  0999 V2000
  -36.9100    4.7602   14.0535 C   0  0  0  0  0  0  0  0  0  0  0  0
  -37.4101    3.8079   13.1119 C   0  0  0  0  0  0  0  0  0  0  0  0
  -36.3988    3.1343   12.4816 C   0  0  0  0  0  0  0  0  0  0  0  0
  -36.6173    2.1886   11.5540 F   0  0  0  0  0  0  0  0  0  0  0  0
  -34.8621    3.6112   12.9864 S   0  0  0  0  0  0  0  0  0  0  0  0
  -35.5178    4.7565   14.0855 C   0  0  0  0  0  0  0  0  0  0  0  0
  -39.2589    6.3931   16.4829 C   0  0  0  0  0  0  0  0  0  0  0  0
  -38.6481    5.2271   15.7473 C   0  0  0  0  0  0  0  0  0  0  0  0
  -39.0156    4.0784   15.9703 O   0  0  0  0  0  0  0  0  0  0  0  0
  -37.6576    5.6149   14.8666 N   0  0  0  0  0  0  0  0  0  0  0  0
  -37.4614    6.5778   14.8066 H   0  0  0  0  0  0  0  0  0  0  0  0
  -34.6710    5.5853   14.9151 C   0  0  0  0  0  0  0  0  0  0  0  0
  -34.0782    5.2243   15.9249 O   0  0  0  0  0  0  0  0  0  0  0  0
  -34.5624    6.8617   14.4880 O   0  0  0  0  0  0  0  0  0  0  0  0
  -35.0158    7.1375   13.7158 H   0  0  0  0  0  0  0  0  0  0  0  0
  7  8  1  0
  8  9  2  0
  8 10  1  0
 10  1  1  0
  1  2  1  0
  2  3  2  0
  3  4  1  0
  3  5  1  0
  5  6  1  0
  6 12  1  0
 12 13  2  0
 12 14  1  0
  6  1  2  0
 10 11  1  0
 14 15  1  0
M  END
> <minimizedAffinity>
-4.62715

> <CNNscore>
0.6068093777

> <CNNaffinity>
2.9932975769

> <CNN_VS>
1.8163610697

> <CNNaffinity_variance>
0.5951415896

$$$$



 15 15  0  0  0  0  0  0  0  0999 V2000
  -37.7854    3.4343    9.4111 C   0  0  0  0  0  0  0  0  0  0  0  0
  -37.2228    4.0068    8.2282 C   0  0  0  0  0  0  0  0  0  0  0  0
  -38.1802    4.2821    7.2895 C   0  0  0  0  0  0  0  0  0  0  0  0
  -37.8975    4.8243    6.0941 F   0  0  0  0  0  0  0  0  0  0  0  0
  -39.7392    3.8729    7.7852 S   0  0  0  0  0  0  0  0  0  0  0  0
  -39.1676    3.3037    9.3014 C   0  0  0  0  0  0  0  0  0  0  0  0
  -35.6171    3.0675   12.4523 C   0  0  0  0  0  0  0  0  0  0  0  0
  -36.1646    3.7839   11.2436 C   0  0  0  0  0  0  0  0  0  0  0  0
  -35.7967    4.9199   10.9636 O   0  0  0  0  0  0  0  0  0  0  0  0
  -37.1023    3.0339   10.5615 N   0  0  0  0  0  0  0  0  0  0  0  0
  -37.3071    2.1390   10.9171 H   0  0  0  0  0  0  0  0  0  0  0  0
  -40.0659    2.7660   10.2995 C   0  0  0  0  0  0  0  0  0  0  0  0
  -41.0341    3.3423   10.7809 O   0  0  0  0  0  0  0  0  0  0  0  0
  -39.7591    1.5127   10.6975 O   0  0  0  0  0  0  0  0  0  0  0  0
  -39.0186    1.0722   10.3292 H   0  0  0  0  0  0  0  0  0  0  0  0
  7  8  1  0
  8  9  2  0
  8 10  1  0
 10  1  1  0
  1  2  1  0
  2  3  2  0
  3  4  1  0
  3  5  1  0
  5  6  1  0
  6 12  1  0
 12 13  2  0
 12 14  1  0
  6  1  2  0
 10 11  1  0
 14 15  1  0
M  END
> <minimizedAffinity>
-4.33541

> <CNNscore>
0.5871933699

> <CNNaffinity>
3.2828934193

> <CNN_VS>
1.9276932478

> <CNNaffinity_variance>
0.5647168756

$$$$
