


 19 20  0  0  0  0  0  0  0  0999 V2000
   34.7989   68.9793   18.2296 C   0  0  0  0  0  0  0  0  0  0  0  0
   33.4039   68.4649   18.6821 C   0  0  0  0  0  0  0  0  0  0  0  0
   32.6979   67.7492   17.5108 C   0  0  0  0  0  0  0  0  0  0  0  0
   32.8696   68.5147   16.2212 C   0  0  0  0  0  0  0  0  0  0  0  0
   32.1617   68.3774   15.0920 N   0  0  0  0  0  0  0  0  0  0  0  0
   32.5480   69.3003   14.1552 C   0  0  0  0  0  0  0  0  0  0  0  0
   33.5438   70.0370   14.7337 C   0  0  0  0  0  0  0  0  0  0  0  0
   33.7557   69.5046   16.0029 N   0  0  0  0  0  0  0  0  0  0  0  0
   34.6481   70.0133   17.0709 C   0  0  0  0  0  0  0  0  0  0  0  0
   31.4577   67.7032   14.9535 H   0  0  0  0  0  0  0  0  0  0  0  0
   36.0507   70.4266   16.5702 C   0  0  0  0  0  0  0  0  0  0  0  0
   36.4528   71.6854   17.1004 O   0  0  0  0  0  0  0  0  0  0  0  0
   35.8295   72.3710   16.8136 H   0  0  0  0  0  0  0  0  0  0  0  0
   34.7234   70.6831   19.9101 C   0  0  0  0  0  0  0  0  0  0  0  0
   35.4853   69.6319   19.3131 O   0  0  0  0  0  0  0  0  0  0  0  0
   33.5727   67.5025   19.7392 O   0  0  0  0  0  0  0  0  0  0  0  0
   32.7143   67.7506   20.8527 C   0  0  0  0  0  0  0  0  0  0  0  0
   31.2881   67.5935   17.7300 O   0  0  0  0  0  0  0  0  0  0  0  0
   30.8675   66.2332   17.7645 C   0  0  0  0  0  0  0  0  0  0  0  0
 14 15  1  0
  1 15  1  0
  1  2  1  0
  2 16  1  0
 16 17  1  0
  2  3  1  0
  3 18  1  0
 18 19  1  0
  3  4  1  0
  4  5  1  0
  5  6  1  0
  6  7  2  0
  7  8  1  0
  8  9  1  0
  9 11  1  0
 11 12  1  0
  9  1  1  0
  8  4  2  0
  5 10  1  0
 12 13  1  0
M  CHG 1   8   1
M  END
> <minimizedAffinity>
-4.53539

> <CNNscore>
0.3177223206

> <CNNaffinity>
3.3796145916

> <CNN_VS>
1.0737789869

> <CNNaffinity_variance>
1.1410647631

$$$$



 19 20  0  0  0  0  0  0  0  0999 V2000
   33.3809   70.2384   16.6509 C   0  0  0  0  0  0  0  0  0  0  0  0
   32.4427   69.0511   16.2967 C   0  0  0  0  0  0  0  0  0  0  0  0
   31.9798   68.3390   17.5856 C   0  0  0  0  0  0  0  0  0  0  0  0
   33.1237   68.1705   18.5560 C   0  0  0  0  0  0  0  0  0  0  0  0
   33.1809   67.3490   19.6129 N   0  0  0  0  0  0  0  0  0  0  0  0
   34.4110   67.4082   20.2145 C   0  0  0  0  0  0  0  0  0  0  0  0
   35.1434   68.3123   19.4968 C   0  0  0  0  0  0  0  0  0  0  0  0
   34.3100   68.8043   18.4955 N   0  0  0  0  0  0  0  0  0  0  0  0
   34.6571   69.7230   17.3859 C   0  0  0  0  0  0  0  0  0  0  0  0
   32.4382   66.7788   19.9170 H   0  0  0  0  0  0  0  0  0  0  0  0
   35.5188   70.9306   17.8197 C   0  0  0  0  0  0  0  0  0  0  0  0
   36.4210   71.3331   16.7944 O   0  0  0  0  0  0  0  0  0  0  0  0
   37.0268   70.6031   16.5919 H   0  0  0  0  0  0  0  0  0  0  0  0
   34.3050   70.0560   14.4497 C   0  0  0  0  0  0  0  0  0  0  0  0
   33.8081   70.9312   15.4641 O   0  0  0  0  0  0  0  0  0  0  0  0
   31.2681   69.5553   15.6348 O   0  0  0  0  0  0  0  0  0  0  0  0
   30.9195   68.7966   14.4767 C   0  0  0  0  0  0  0  0  0  0  0  0
   31.4410   67.0336   17.3304 O   0  0  0  0  0  0  0  0  0  0  0  0
   30.0741   66.9017   17.7081 C   0  0  0  0  0  0  0  0  0  0  0  0
 14 15  1  0
  1 15  1  0
  1  2  1  0
  2 16  1  0
 16 17  1  0
  2  3  1  0
  3 18  1  0
 18 19  1  0
  3  4  1  0
  4  5  1  0
  5  6  1  0
  6  7  2  0
  7  8  1  0
  8  9  1  0
  9 11  1  0
 11 12  1  0
  9  1  1  0
  8  4  2  0
  5 10  1  0
 12 13  1  0
M  CHG 1   8   1
M  END
> <minimizedAffinity>
-4.18420

> <CNNscore>
0.2710641623

> <CNNaffinity>
3.1198775768

> <CNN_VS>
0.8456869721

> <CNNaffinity_variance>
1.6967176199

$$$$



 19 20  0  0  0  0  0  0  0  0999 V2000
   31.7127   67.8841   17.0998 C   0  0  0  0  0  0  0  0  0  0  0  0
   32.4666   69.2184   16.8424 C   0  0  0  0  0  0  0  0  0  0  0  0
   33.9313   69.0988   17.3149 C   0  0  0  0  0  0  0  0  0  0  0  0
   34.0184   68.3947   18.6473 C   0  0  0  0  0  0  0  0  0  0  0  0
   35.0550   68.3827   19.4960 N   0  0  0  0  0  0  0  0  0  0  0  0
   34.7409   67.7045   20.6449 C   0  0  0  0  0  0  0  0  0  0  0  0
   33.4519   67.2748   20.4938 C   0  0  0  0  0  0  0  0  0  0  0  0
   33.0364   67.6795   19.2278 N   0  0  0  0  0  0  0  0  0  0  0  0
   31.6879   67.5584   18.6255 C   0  0  0  0  0  0  0  0  0  0  0  0
   35.9265   68.8048   19.3181 H   0  0  0  0  0  0  0  0  0  0  0  0
   31.0277   66.1778   18.8419 C   0  0  0  0  0  0  0  0  0  0  0  0
   31.2911   65.2894   17.7608 O   0  0  0  0  0  0  0  0  0  0  0  0
   30.9262   65.6595   16.9419 H   0  0  0  0  0  0  0  0  0  0  0  0
   29.6295   69.0581   17.2209 C   0  0  0  0  0  0  0  0  0  0  0  0
   30.3492   67.9654   16.6466 O   0  0  0  0  0  0  0  0  0  0  0  0
   32.4884   69.4865   15.4283 O   0  0  0  0  0  0  0  0  0  0  0  0
   33.3131   68.5715   14.7065 C   0  0  0  0  0  0  0  0  0  0  0  0
   34.5675   70.3765   17.4653 O   0  0  0  0  0  0  0  0  0  0  0  0
   35.7797   70.4955   16.7270 C   0  0  0  0  0  0  0  0  0  0  0  0
 14 15  1  0
  1 15  1  0
  1  2  1  0
  2 16  1  0
 16 17  1  0
  2  3  1  0
  3 18  1  0
 18 19  1  0
  3  4  1  0
  4  5  1  0
  5  6  1  0
  6  7  2  0
  7  8  1  0
  8  9  1  0
  9 11  1  0
 11 12  1  0
  9  1  1  0
  8  4  2  0
  5 10  1  0
 12 13  1  0
M  CHG 1   8   1
M  END
> <minimizedAffinity>
-4.16615

> <CNNscore>
0.2293533534

> <CNNaffinity>
2.6766140461

> <CNN_VS>
0.6138904095

> <CNNaffinity_variance>
2.0329844952

$$$$



 19 20  0  0  0  0  0  0  0  0999 V2000
   24.3392   64.5695   15.1836 C   0  0  0  0  0  0  0  0  0  0  0  0
   23.5517   64.6306   13.8452 C   0  0  0  0  0  0  0  0  0  0  0  0
   24.0370   63.5160   12.8938 C   0  0  0  0  0  0  0  0  0  0  0  0
   25.5420   63.4008   12.9123 C   0  0  0  0  0  0  0  0  0  0  0  0
   26.3226   62.7824   12.0160 N   0  0  0  0  0  0  0  0  0  0  0  0
   27.6483   62.9550   12.3179 C   0  0  0  0  0  0  0  0  0  0  0  0
   27.6850   63.7112   13.4561 C   0  0  0  0  0  0  0  0  0  0  0  0
   26.3639   63.9420   13.8312 N   0  0  0  0  0  0  0  0  0  0  0  0
   25.8615   64.7994   14.9304 C   0  0  0  0  0  0  0  0  0  0  0  0
   25.9884   62.2719   11.2434 H   0  0  0  0  0  0  0  0  0  0  0  0
   26.6314   64.6278   16.2595 C   0  0  0  0  0  0  0  0  0  0  0  0
   26.1657   63.5046   17.0004 O   0  0  0  0  0  0  0  0  0  0  0  0
   25.2297   63.6291   17.2221 H   0  0  0  0  0  0  0  0  0  0  0  0
   23.1812   65.0616   17.2207 C   0  0  0  0  0  0  0  0  0  0  0  0
   23.8878   65.5873   16.0955 O   0  0  0  0  0  0  0  0  0  0  0  0
   22.1548   64.4001   14.1052 O   0  0  0  0  0  0  0  0  0  0  0  0
   21.8705   63.0372   14.4215 C   0  0  0  0  0  0  0  0  0  0  0  0
   23.6433   63.7438   11.5326 O   0  0  0  0  0  0  0  0  0  0  0  0
   23.7853   65.1001   11.1217 C   0  0  0  0  0  0  0  0  0  0  0  0
 14 15  1  0
  1 15  1  0
  1  2  1  0
  2 16  1  0
 16 17  1  0
  2  3  1  0
  3 18  1  0
 18 19  1  0
  3  4  1  0
  4  5  1  0
  5  6  1  0
  6  7  2  0
  7  8  1  0
  8  9  1  0
  9 11  1  0
 11 12  1  0
  9  1  1  0
  8  4  2  0
  5 10  1  0
 12 13  1  0
M  CHG 1   8   1
M  END
> <minimizedAffinity>
-4.55639

> <CNNscore>
0.2033467889

> <CNNaffinity>
3.0889663696

> <CNN_VS>
0.6281313896

> <CNNaffinity_variance>
0.8353034854

$$$$



 19 20  0  0  0  0  0  0  0  0999 V2000
   32.9410   68.0800   18.3179 C   0  0  0  0  0  0  0  0  0  0  0  0
   33.7786   68.2053   17.0149 C   0  0  0  0  0  0  0  0  0  0  0  0
   32.8939   68.7335   15.8654 C   0  0  0  0  0  0  0  0  0  0  0  0
   31.5418   68.0623   15.8657 C   0  0  0  0  0  0  0  0  0  0  0  0
   30.6479   68.0308   14.8682 N   0  0  0  0  0  0  0  0  0  0  0  0
   29.5669   67.2572   15.2022 C   0  0  0  0  0  0  0  0  0  0  0  0
   29.8048   66.7948   16.4665 C   0  0  0  0  0  0  0  0  0  0  0  0
   31.0187   67.3412   16.8753 N   0  0  0  0  0  0  0  0  0  0  0  0
   31.7743   67.0633   18.1193 C   0  0  0  0  0  0  0  0  0  0  0  0
   30.7534   68.5009   14.0096 H   0  0  0  0  0  0  0  0  0  0  0  0
   30.8971   67.0383   19.3917 C   0  0  0  0  0  0  0  0  0  0  0  0
   30.6818   65.7113   19.8607 O   0  0  0  0  0  0  0  0  0  0  0  0
   30.2186   65.1988   19.1797 H   0  0  0  0  0  0  0  0  0  0  0  0
   33.8598   68.5521   20.4780 C   0  0  0  0  0  0  0  0  0  0  0  0
   33.7517   67.6092   19.4098 O   0  0  0  0  0  0  0  0  0  0  0  0
   34.8367   69.1594   17.2204 O   0  0  0  0  0  0  0  0  0  0  0  0
   34.3519   70.4907   17.3964 C   0  0  0  0  0  0  0  0  0  0  0  0
   33.4794   68.5129   14.5738 O   0  0  0  0  0  0  0  0  0  0  0  0
   33.7164   69.7147   13.8471 C   0  0  0  0  0  0  0  0  0  0  0  0
 14 15  1  0
  1 15  1  0
  1  2  1  0
  2 16  1  0
 16 17  1  0
  2  3  1  0
  3 18  1  0
 18 19  1  0
  3  4  1  0
  4  5  1  0
  5  6  1  0
  6  7  2  0
  7  8  1  0
  8  9  1  0
  9 11  1  0
 11 12  1  0
  9  1  1  0
  8  4  2  0
  5 10  1  0
 12 13  1  0
M  CHG 1   8   1
M  END
> <minimizedAffinity>
-4.31478

> <CNNscore>
0.1572308093

> <CNNaffinity>
2.5791976452

> <CNN_VS>
0.4055293202

> <CNNaffinity_variance>
1.6657590866

$$$$



 19 20  0  0  0  0  0  0  0  0999 V2000
   24.9311   65.3457    9.4623 C   0  0  0  0  0  0  0  0  0  0  0  0
   26.4470   65.6860    9.4264 C   0  0  0  0  0  0  0  0  0  0  0  0
   26.8276   66.5391   10.6553 C   0  0  0  0  0  0  0  0  0  0  0  0
   25.7920   67.6047   10.9209 C   0  0  0  0  0  0  0  0  0  0  0  0
   25.9256   68.6982   11.6834 N   0  0  0  0  0  0  0  0  0  0  0  0
   24.8007   69.4789   11.6232 C   0  0  0  0  0  0  0  0  0  0  0  0
   23.9323   68.8329   10.7881 C   0  0  0  0  0  0  0  0  0  0  0  0
   24.5531   67.6496   10.3958 N   0  0  0  0  0  0  0  0  0  0  0  0
   24.0787   66.6515    9.4086 C   0  0  0  0  0  0  0  0  0  0  0  0
   26.7253   68.9124   12.2162 H   0  0  0  0  0  0  0  0  0  0  0  0
   22.5828   66.2907    9.5531 C   0  0  0  0  0  0  0  0  0  0  0  0
   22.0491   65.7518    8.3480 O   0  0  0  0  0  0  0  0  0  0  0  0
   22.1208   66.4106    7.6397 H   0  0  0  0  0  0  0  0  0  0  0  0
   24.2919   63.1723    8.6874 C   0  0  0  0  0  0  0  0  0  0  0  0
   24.5575   64.5316    8.3359 O   0  0  0  0  0  0  0  0  0  0  0  0
   27.2091   64.4666    9.4929 O   0  0  0  0  0  0  0  0  0  0  0  0
   27.1396   63.8424   10.7750 C   0  0  0  0  0  0  0  0  0  0  0  0
   28.0906   67.2019   10.4958 O   0  0  0  0  0  0  0  0  0  0  0  0
   29.0286   66.8865   11.5201 C   0  0  0  0  0  0  0  0  0  0  0  0
 14 15  1  0
  1 15  1  0
  1  2  1  0
  2 16  1  0
 16 17  1  0
  2  3  1  0
  3 18  1  0
 18 19  1  0
  3  4  1  0
  4  5  1  0
  5  6  1  0
  6  7  2  0
  7  8  1  0
  8  9  1  0
  9 11  1  0
 11 12  1  0
  9  1  1  0
  8  4  2  0
  5 10  1  0
 12 13  1  0
M  CHG 1   8   1
M  END
> <minimizedAffinity>
-4.64341

> <CNNscore>
0.1398054212

> <CNNaffinity>
2.6346027851

> <CNN_VS>
0.3683317602

> <CNNaffinity_variance>
1.3037923574

$$$$



 19 20  0  0  0  0  0  0  0  0999 V2000
   25.8750   64.8209   17.4279 C   0  0  0  0  0  0  0  0  0  0  0  0
   25.6411   64.9455   15.8966 C   0  0  0  0  0  0  0  0  0  0  0  0
   26.9599   64.6878   15.1367 C   0  0  0  0  0  0  0  0  0  0  0  0
   28.1209   65.3785   15.8102 C   0  0  0  0  0  0  0  0  0  0  0  0
   29.3280   65.6371   15.2896 N   0  0  0  0  0  0  0  0  0  0  0  0
   30.0986   66.3524   16.1689 C   0  0  0  0  0  0  0  0  0  0  0  0
   29.3312   66.5384   17.2848 C   0  0  0  0  0  0  0  0  0  0  0  0
   28.1207   65.8891   17.0560 N   0  0  0  0  0  0  0  0  0  0  0  0
   26.9090   65.8857   17.9090 C   0  0  0  0  0  0  0  0  0  0  0  0
   29.6223   65.3514   14.3947 H   0  0  0  0  0  0  0  0  0  0  0  0
   27.2019   65.6703   19.4112 C   0  0  0  0  0  0  0  0  0  0  0  0
   27.8437   64.4223   19.6521 O   0  0  0  0  0  0  0  0  0  0  0  0
   27.2643   63.6998   19.3636 H   0  0  0  0  0  0  0  0  0  0  0  0
   24.0757   66.3219   17.9201 C   0  0  0  0  0  0  0  0  0  0  0  0
   24.6527   65.0362   18.1563 O   0  0  0  0  0  0  0  0  0  0  0  0
   24.6968   63.9432   15.4773 O   0  0  0  0  0  0  0  0  0  0  0  0
   23.6162   64.4869   14.7191 C   0  0  0  0  0  0  0  0  0  0  0  0
   26.9143   65.1548   13.7804 O   0  0  0  0  0  0  0  0  0  0  0  0
   27.0515   64.1136   12.8184 C   0  0  0  0  0  0  0  0  0  0  0  0
 14 15  1  0
  1 15  1  0
  1  2  1  0
  2 16  1  0
 16 17  1  0
  2  3  1  0
  3 18  1  0
 18 19  1  0
  3  4  1  0
  4  5  1  0
  5  6  1  0
  6  7  2  0
  7  8  1  0
  8  9  1  0
  9 11  1  0
 11 12  1  0
  9  1  1  0
  8  4  2  0
  5 10  1  0
 12 13  1  0
M  CHG 1   8   1
M  END
> <minimizedAffinity>
-4.79796

> <CNNscore>
0.1360242218

> <CNNaffinity>
2.3702120781

> <CNN_VS>
0.3224062622

> <CNNaffinity_variance>
1.7278662920

$$$$



 19 20  0  0  0  0  0  0  0  0999 V2000
   27.6949   65.8112   11.4395 C   0  0  0  0  0  0  0  0  0  0  0  0
   28.6301   65.5641   10.2232 C   0  0  0  0  0  0  0  0  0  0  0  0
   27.8951   65.9110    8.9109 C   0  0  0  0  0  0  0  0  0  0  0  0
   26.4775   65.3925    8.9267 C   0  0  0  0  0  0  0  0  0  0  0  0
   25.6577   65.2306    7.8794 N   0  0  0  0  0  0  0  0  0  0  0  0
   24.4736   64.6594    8.2668 C   0  0  0  0  0  0  0  0  0  0  0  0
   24.5674   64.4652    9.6167 C   0  0  0  0  0  0  0  0  0  0  0  0
   25.8051   64.9660   10.0124 N   0  0  0  0  0  0  0  0  0  0  0  0
   26.4346   64.8955   11.3520 C   0  0  0  0  0  0  0  0  0  0  0  0
   25.8767   65.4877    6.9547 H   0  0  0  0  0  0  0  0  0  0  0  0
   25.4739   65.2373   12.5135 C   0  0  0  0  0  0  0  0  0  0  0  0
   25.0781   64.0742   13.2332 O   0  0  0  0  0  0  0  0  0  0  0  0
   24.6085   63.4696   12.6375 H   0  0  0  0  0  0  0  0  0  0  0  0
   28.7130   64.1348   12.8128 C   0  0  0  0  0  0  0  0  0  0  0  0
   28.3673   65.5146   12.6769 O   0  0  0  0  0  0  0  0  0  0  0  0
   29.7750   66.4312   10.3206 O   0  0  0  0  0  0  0  0  0  0  0  0
   30.9868   65.7912    9.9204 C   0  0  0  0  0  0  0  0  0  0  0  0
   28.5397   65.3554    7.7552 O   0  0  0  0  0  0  0  0  0  0  0  0
   28.9260   66.3354    6.7967 C   0  0  0  0  0  0  0  0  0  0  0  0
 14 15  1  0
  1 15  1  0
  1  2  1  0
  2 16  1  0
 16 17  1  0
  2  3  1  0
  3 18  1  0
 18 19  1  0
  3  4  1  0
  4  5  1  0
  5  6  1  0
  6  7  2  0
  7  8  1  0
  8  9  1  0
  9 11  1  0
 11 12  1  0
  9  1  1  0
  8  4  2  0
  5 10  1  0
 12 13  1  0
M  CHG 1   8   1
M  END
> <minimizedAffinity>
-4.83676

> <CNNscore>
0.1304522753

> <CNNaffinity>
3.2704288960

> <CNN_VS>
0.4266348779

> <CNNaffinity_variance>
1.1437425613

$$$$



 19 20  0  0  0  0  0  0  0  0999 V2000
   24.2415   64.3376    9.2107 C   0  0  0  0  0  0  0  0  0  0  0  0
   25.2846   63.5627   10.0631 C   0  0  0  0  0  0  0  0  0  0  0  0
   24.6445   63.0967   11.3883 C   0  0  0  0  0  0  0  0  0  0  0  0
   23.7915   64.1850   11.9939 C   0  0  0  0  0  0  0  0  0  0  0  0
   23.3436   64.2624   13.2542 N   0  0  0  0  0  0  0  0  0  0  0  0
   22.6662   65.4354   13.4632 C   0  0  0  0  0  0  0  0  0  0  0  0
   22.6946   66.1092   12.2740 C   0  0  0  0  0  0  0  0  0  0  0  0
   23.3635   65.2950   11.3636 N   0  0  0  0  0  0  0  0  0  0  0  0
   23.7562   65.6113    9.9701 C   0  0  0  0  0  0  0  0  0  0  0  0
   23.4825   63.5689   13.9391 H   0  0  0  0  0  0  0  0  0  0  0  0
   22.6446   66.3027    9.1485 C   0  0  0  0  0  0  0  0  0  0  0  0
   22.0042   65.3968    8.2560 O   0  0  0  0  0  0  0  0  0  0  0  0
   22.6551   65.0484    7.6268 H   0  0  0  0  0  0  0  0  0  0  0  0
   25.9786   65.5714    8.1185 C   0  0  0  0  0  0  0  0  0  0  0  0
   24.8108   64.7635    7.9595 O   0  0  0  0  0  0  0  0  0  0  0  0
   25.7031   62.3861    9.3471 O   0  0  0  0  0  0  0  0  0  0  0  0
   24.6670   61.4100    9.2374 C   0  0  0  0  0  0  0  0  0  0  0  0
   25.6220   62.7243   12.3710 O   0  0  0  0  0  0  0  0  0  0  0  0
   26.7522   63.5905   12.4016 C   0  0  0  0  0  0  0  0  0  0  0  0
 14 15  1  0
  1 15  1  0
  1  2  1  0
  2 16  1  0
 16 17  1  0
  2  3  1  0
  3 18  1  0
 18 19  1  0
  3  4  1  0
  4  5  1  0
  5  6  1  0
  6  7  2  0
  7  8  1  0
  8  9  1  0
  9 11  1  0
 11 12  1  0
  9  1  1  0
  8  4  2  0
  5 10  1  0
 12 13  1  0
M  CHG 1   8   1
M  END
> <minimizedAffinity>
-5.25789

> <CNNscore>
0.1265991777

> <CNNaffinity>
2.6305782795

> <CNN_VS>
0.3330290616

> <CNNaffinity_variance>
1.4501699209

$$$$
