


 32 34  0  0  0  0  0  0  0  0999 V2000
   90.7182   95.4261  -45.0406 C   0  0  0  0  0  0  0  0  0  0  0  0
   90.8723   94.4126  -46.0052 C   0  0  0  0  0  0  0  0  0  0  0  0
   91.5435   93.2241  -45.7042 C   0  0  0  0  0  0  0  0  0  0  0  0
   92.0825   93.0285  -44.4335 C   0  0  0  0  0  0  0  0  0  0  0  0
   91.9538   94.0293  -43.4700 C   0  0  0  0  0  0  0  0  0  0  0  0
   92.7897   93.7033  -41.5807 I   0  0  0  0  0  0  0  0  0  0  0  0
   91.2823   95.2224  -43.7727 C   0  0  0  0  0  0  0  0  0  0  0  0
   91.1756   96.2247  -42.8456 O   0  0  0  0  0  0  0  0  0  0  0  0
   91.5439   96.1137  -41.9912 H   0  0  0  0  0  0  0  0  0  0  0  0
   91.6819   92.2082  -46.7012 C   0  0  0  0  0  0  0  0  0  0  0  0
   91.8005   91.3456  -47.5286 C   0  0  0  0  0  0  0  0  0  0  0  0
   91.9533   90.2830  -48.5293 C   0  0  0  0  0  0  0  0  0  0  0  0
   91.2996   90.6255  -49.7541 O   0  0  0  0  0  0  0  0  0  0  0  0
   89.9624   90.3674  -49.8745 C   0  0  0  0  0  0  0  0  0  0  0  0
   89.2259   91.3954  -50.4729 C   0  0  0  0  0  0  0  0  0  0  0  0
   87.8470   91.2717  -50.6576 C   0  0  0  0  0  0  0  0  0  0  0  0
   87.1989   90.1149  -50.2359 C   0  0  0  0  0  0  0  0  0  0  0  0
   85.5011   89.9533  -50.4592 Cl  0  0  0  0  0  0  0  0  0  0  0  0
   87.9194   89.0878  -49.6300 C   0  0  0  0  0  0  0  0  0  0  0  0
   89.3014   89.2146  -49.4470 C   0  0  0  0  0  0  0  0  0  0  0  0
   89.9799   96.6997  -45.4061 C   0  0  0  0  0  0  0  0  0  0  0  0
   91.9490  100.3994  -44.6625 C   0  0  0  0  0  0  0  0  0  0  0  0
   91.0879   99.8430  -43.5210 C   0  0  0  0  0  0  0  0  0  0  0  0
   90.1336   98.7494  -44.0280 C   0  0  0  0  0  0  0  0  0  0  0  0
   90.6657   97.9724  -45.1463 N   0  0  0  0  0  0  0  0  0  0  0  0
   92.1198   97.8874  -45.1555 C   0  0  0  0  0  0  0  0  0  0  0  0
   92.7355   99.2758  -45.3704 C   0  0  0  0  0  0  0  0  0  0  0  0
   92.8231  101.5641  -44.3424 N   0  0  0  0  0  0  0  0  0  0  0  0
   92.9848  104.0312  -44.8316 C   0  0  0  0  0  0  0  0  0  0  0  0
   92.6054  102.6404  -45.3351 C   0  0  0  0  0  0  0  0  0  0  0  0
   92.7020  102.0879  -42.9674 C   0  0  0  0  0  0  0  0  0  0  0  0
   92.1567  101.1064  -41.9355 C   0  0  0  0  0  0  0  0  0  0  0  0
 29 30  1  0
 30 28  1  0
 28 31  1  0
 31 32  1  0
 28 22  1  0
 22 23  1  0
 23 24  1  0
 24 25  1  0
 25 21  1  0
 21  1  1  0
  1  2  2  0
  2  3  1  0
  3 10  1  0
 10 11  3  0
 11 12  1  0
 12 13  1  0
 13 14  1  0
 14 15  2  0
 15 16  1  0
 16 17  2  0
 17 18  1  0
 17 19  1  0
 19 20  2  0
  3  4  2  0
  4  5  1  0
  5  6  1  0
  5  7  2  0
  7  8  1  0
 25 26  1  0
 26 27  1  0
 27 22  1  0
  7  1  1  0
 20 14  1  0
  8  9  1  0
M  END
> <minimizedAffinity>
-6.57096

> <CNNscore>
0.8865509629

> <CNNaffinity>
5.9969925880

> <CNN_VS>
5.3166394234

> <CNNaffinity_variance>
0.9218624234

$$$$



 32 34  0  0  0  0  0  0  0  0999 V2000
   90.9402   95.4317  -45.0091 C   0  0  0  0  0  0  0  0  0  0  0  0
   91.0324   94.4540  -46.0177 C   0  0  0  0  0  0  0  0  0  0  0  0
   91.5403   93.1805  -45.7456 C   0  0  0  0  0  0  0  0  0  0  0  0
   91.9748   92.8614  -44.4600 C   0  0  0  0  0  0  0  0  0  0  0  0
   91.9063   93.8235  -43.4520 C   0  0  0  0  0  0  0  0  0  0  0  0
   92.5826   93.3100  -41.5406 I   0  0  0  0  0  0  0  0  0  0  0  0
   91.3989   95.1016  -43.7255 C   0  0  0  0  0  0  0  0  0  0  0  0
   91.3546   96.0643  -42.7524 O   0  0  0  0  0  0  0  0  0  0  0  0
   91.6550   95.8694  -41.8866 H   0  0  0  0  0  0  0  0  0  0  0  0
   91.6186   92.2039  -46.7874 C   0  0  0  0  0  0  0  0  0  0  0  0
   91.6963   91.3788  -47.6569 C   0  0  0  0  0  0  0  0  0  0  0  0
   91.8064   90.3693  -48.7164 C   0  0  0  0  0  0  0  0  0  0  0  0
   90.9518   90.6797  -49.8200 O   0  0  0  0  0  0  0  0  0  0  0  0
   89.6677   90.2106  -49.8033 C   0  0  0  0  0  0  0  0  0  0  0  0
   89.5157   88.9606  -49.1936 C   0  0  0  0  0  0  0  0  0  0  0  0
   88.2595   88.3562  -49.1074 C   0  0  0  0  0  0  0  0  0  0  0  0
   87.1485   89.0031  -49.6397 C   0  0  0  0  0  0  0  0  0  0  0  0
   85.5974   88.2667  -49.5382 Cl  0  0  0  0  0  0  0  0  0  0  0  0
   87.2879   90.2439  -50.2578 C   0  0  0  0  0  0  0  0  0  0  0  0
   88.5482   90.8473  -50.3419 C   0  0  0  0  0  0  0  0  0  0  0  0
   90.3798   96.8007  -45.3445 C   0  0  0  0  0  0  0  0  0  0  0  0
   91.2100   99.9488  -42.6025 C   0  0  0  0  0  0  0  0  0  0  0  0
   91.8479  100.0686  -43.9928 C   0  0  0  0  0  0  0  0  0  0  0  0
   91.8141   98.7235  -44.7367 C   0  0  0  0  0  0  0  0  0  0  0  0
   90.6599   97.8912  -44.4011 N   0  0  0  0  0  0  0  0  0  0  0  0
   89.4881   98.6572  -43.9986 C   0  0  0  0  0  0  0  0  0  0  0  0
   89.7655   99.4126  -42.6927 C   0  0  0  0  0  0  0  0  0  0  0  0
   91.2981  101.1432  -41.7145 N   0  0  0  0  0  0  0  0  0  0  0  0
   89.7151  103.0779  -41.3934 C   0  0  0  0  0  0  0  0  0  0  0  0
   89.9384  101.5694  -41.3134 C   0  0  0  0  0  0  0  0  0  0  0  0
   92.1689  100.9906  -40.5320 C   0  0  0  0  0  0  0  0  0  0  0  0
   93.1112  102.1570  -40.2545 C   0  0  0  0  0  0  0  0  0  0  0  0
 29 30  1  0
 30 28  1  0
 28 31  1  0
 31 32  1  0
 28 22  1  0
 22 23  1  0
 23 24  1  0
 24 25  1  0
 25 21  1  0
 21  1  1  0
  1  2  2  0
  2  3  1  0
  3 10  1  0
 10 11  3  0
 11 12  1  0
 12 13  1  0
 13 14  1  0
 14 15  2  0
 15 16  1  0
 16 17  2  0
 17 18  1  0
 17 19  1  0
 19 20  2  0
  3  4  2  0
  4  5  1  0
  5  6  1  0
  5  7  2  0
  7  8  1  0
 25 26  1  0
 26 27  1  0
 27 22  1  0
  7  1  1  0
 20 14  1  0
  8  9  1  0
M  END
> <minimizedAffinity>
-7.30552

> <CNNscore>
0.8777509332

> <CNNaffinity>
5.8895363808

> <CNN_VS>
5.1695461273

> <CNNaffinity_variance>
1.0343593359

$$$$



 32 34  0  0  0  0  0  0  0  0999 V2000
   90.9127   95.4395  -45.0081 C   0  0  0  0  0  0  0  0  0  0  0  0
   91.0123   94.4511  -46.0054 C   0  0  0  0  0  0  0  0  0  0  0  0
   91.5365   93.1870  -45.7205 C   0  0  0  0  0  0  0  0  0  0  0  0
   91.9802   92.8885  -44.4331 C   0  0  0  0  0  0  0  0  0  0  0  0
   91.9045   93.8617  -43.4363 C   0  0  0  0  0  0  0  0  0  0  0  0
   92.5950   93.3790  -41.5219 I   0  0  0  0  0  0  0  0  0  0  0  0
   91.3807   95.1303  -43.7227 C   0  0  0  0  0  0  0  0  0  0  0  0
   91.3291   96.1039  -42.7609 O   0  0  0  0  0  0  0  0  0  0  0  0
   91.6355   95.9229  -41.8942 H   0  0  0  0  0  0  0  0  0  0  0  0
   91.6220   92.1991  -46.7510 C   0  0  0  0  0  0  0  0  0  0  0  0
   91.6921   91.3593  -47.6069 C   0  0  0  0  0  0  0  0  0  0  0  0
   91.7814   90.3227  -48.6419 C   0  0  0  0  0  0  0  0  0  0  0  0
   90.4860   89.9616  -49.1280 O   0  0  0  0  0  0  0  0  0  0  0  0
   89.9995   90.6069  -50.2307 C   0  0  0  0  0  0  0  0  0  0  0  0
   90.6749   91.7883  -50.5553 C   0  0  0  0  0  0  0  0  0  0  0  0
   90.2845   92.5548  -51.6558 C   0  0  0  0  0  0  0  0  0  0  0  0
   89.2077   92.1405  -52.4335 C   0  0  0  0  0  0  0  0  0  0  0  0
   88.7196   93.0777  -53.7907 Cl  0  0  0  0  0  0  0  0  0  0  0  0
   88.5207   90.9709  -52.1153 C   0  0  0  0  0  0  0  0  0  0  0  0
   88.9149   90.2047  -51.0122 C   0  0  0  0  0  0  0  0  0  0  0  0
   90.3344   96.7977  -45.3572 C   0  0  0  0  0  0  0  0  0  0  0  0
   91.7460  100.1281  -43.1135 C   0  0  0  0  0  0  0  0  0  0  0  0
   92.2667  100.0037  -44.5514 C   0  0  0  0  0  0  0  0  0  0  0  0
   92.0194   98.5933  -45.1112 C   0  0  0  0  0  0  0  0  0  0  0  0
   90.8154   97.9515  -44.5859 N   0  0  0  0  0  0  0  0  0  0  0  0
   89.7753   98.8950  -44.1989 C   0  0  0  0  0  0  0  0  0  0  0  0
   90.2491   99.7621  -43.0256 C   0  0  0  0  0  0  0  0  0  0  0  0
   92.0433  101.4006  -42.3958 N   0  0  0  0  0  0  0  0  0  0  0  0
   91.1487  101.8487  -40.0826 C   0  0  0  0  0  0  0  0  0  0  0  0
   92.1865  101.1357  -40.9465 C   0  0  0  0  0  0  0  0  0  0  0  0
   93.2022  102.1598  -42.9061 C   0  0  0  0  0  0  0  0  0  0  0  0
   93.3489  103.5781  -42.3652 C   0  0  0  0  0  0  0  0  0  0  0  0
 29 30  1  0
 30 28  1  0
 28 31  1  0
 31 32  1  0
 28 22  1  0
 22 23  1  0
 23 24  1  0
 24 25  1  0
 25 21  1  0
 21  1  1  0
  1  2  2  0
  2  3  1  0
  3 10  1  0
 10 11  3  0
 11 12  1  0
 12 13  1  0
 13 14  1  0
 14 15  2  0
 15 16  1  0
 16 17  2  0
 17 18  1  0
 17 19  1  0
 19 20  2  0
  3  4  2  0
  4  5  1  0
  5  6  1  0
  5  7  2  0
  7  8  1  0
 25 26  1  0
 26 27  1  0
 27 22  1  0
  7  1  1  0
 20 14  1  0
  8  9  1  0
M  END
> <minimizedAffinity>
-7.29890

> <CNNscore>
0.8582975268

> <CNNaffinity>
5.7229962349

> <CNN_VS>
4.9120335579

> <CNNaffinity_variance>
1.3523830175

$$$$



 32 34  0  0  0  0  0  0  0  0999 V2000
   91.0186   95.6796  -45.0262 C   0  0  0  0  0  0  0  0  0  0  0  0
   91.0517   94.6884  -46.0251 C   0  0  0  0  0  0  0  0  0  0  0  0
   91.4598   93.3833  -45.7352 C   0  0  0  0  0  0  0  0  0  0  0  0
   91.8517   93.0450  -44.4408 C   0  0  0  0  0  0  0  0  0  0  0  0
   91.8411   94.0190  -43.4420 C   0  0  0  0  0  0  0  0  0  0  0  0
   92.4511   93.4746  -41.5168 I   0  0  0  0  0  0  0  0  0  0  0  0
   91.4338   95.3286  -43.7334 C   0  0  0  0  0  0  0  0  0  0  0  0
   91.4479   96.3010  -42.7691 O   0  0  0  0  0  0  0  0  0  0  0  0
   91.7211   96.0924  -41.8974 H   0  0  0  0  0  0  0  0  0  0  0  0
   91.4796   92.3939  -46.7676 C   0  0  0  0  0  0  0  0  0  0  0  0
   91.5100   91.5610  -47.6326 C   0  0  0  0  0  0  0  0  0  0  0  0
   91.5624   90.5456  -48.6908 C   0  0  0  0  0  0  0  0  0  0  0  0
   90.4314   89.6729  -48.6292 O   0  0  0  0  0  0  0  0  0  0  0  0
   89.6942   89.4788  -49.7642 C   0  0  0  0  0  0  0  0  0  0  0  0
   89.4313   90.6453  -50.4905 C   0  0  0  0  0  0  0  0  0  0  0  0
   88.6856   90.5989  -51.6706 C   0  0  0  0  0  0  0  0  0  0  0  0
   88.1942   89.3789  -52.1246 C   0  0  0  0  0  0  0  0  0  0  0  0
   87.2749   89.3118  -53.5768 Cl  0  0  0  0  0  0  0  0  0  0  0  0
   88.4409   88.2114  -51.4056 C   0  0  0  0  0  0  0  0  0  0  0  0
   89.1892   88.2611  -50.2236 C   0  0  0  0  0  0  0  0  0  0  0  0
   90.5660   97.0833  -45.3810 C   0  0  0  0  0  0  0  0  0  0  0  0
   86.6529   98.2203  -44.1510 C   0  0  0  0  0  0  0  0  0  0  0  0
   87.7786   99.2203  -43.8562 C   0  0  0  0  0  0  0  0  0  0  0  0
   89.1586   98.5526  -43.9724 C   0  0  0  0  0  0  0  0  0  0  0  0
   89.2146   97.4794  -44.9636 N   0  0  0  0  0  0  0  0  0  0  0  0
   88.2702   97.6503  -46.0594 C   0  0  0  0  0  0  0  0  0  0  0  0
   86.8288   97.5718  -45.5405 C   0  0  0  0  0  0  0  0  0  0  0  0
   85.2557   98.6955  -43.9396 N   0  0  0  0  0  0  0  0  0  0  0  0
   85.1375  100.8112  -45.3041 C   0  0  0  0  0  0  0  0  0  0  0  0
   85.2285  100.1754  -43.9188 C   0  0  0  0  0  0  0  0  0  0  0  0
   84.2563   98.1670  -44.8892 C   0  0  0  0  0  0  0  0  0  0  0  0
   82.7994   98.4373  -44.5287 C   0  0  0  0  0  0  0  0  0  0  0  0
 29 30  1  0
 30 28  1  0
 28 31  1  0
 31 32  1  0
 28 22  1  0
 22 23  1  0
 23 24  1  0
 24 25  1  0
 25 21  1  0
 21  1  1  0
  1  2  2  0
  2  3  1  0
  3 10  1  0
 10 11  3  0
 11 12  1  0
 12 13  1  0
 13 14  1  0
 14 15  2  0
 15 16  1  0
 16 17  2  0
 17 18  1  0
 17 19  1  0
 19 20  2  0
  3  4  2  0
  4  5  1  0
  5  6  1  0
  5  7  2  0
  7  8  1  0
 25 26  1  0
 26 27  1  0
 27 22  1  0
  7  1  1  0
 20 14  1  0
  8  9  1  0
M  END
> <minimizedAffinity>
-6.84178

> <CNNscore>
0.7329218388

> <CNNaffinity>
5.1059298515

> <CNN_VS>
3.7422475815

> <CNNaffinity_variance>
1.3608756065

$$$$



 32 34  0  0  0  0  0  0  0  0999 V2000
   90.8810   95.5365  -45.2213 C   0  0  0  0  0  0  0  0  0  0  0  0
   90.9837   94.4969  -46.1647 C   0  0  0  0  0  0  0  0  0  0  0  0
   91.4797   93.2406  -45.8049 C   0  0  0  0  0  0  0  0  0  0  0  0
   91.8916   93.0010  -44.4948 C   0  0  0  0  0  0  0  0  0  0  0  0
   91.8126   94.0249  -43.5505 C   0  0  0  0  0  0  0  0  0  0  0  0
   92.4550   93.6294  -41.5998 I   0  0  0  0  0  0  0  0  0  0  0  0
   91.3170   95.2857  -43.9121 C   0  0  0  0  0  0  0  0  0  0  0  0
   91.2627   96.3079  -43.0023 O   0  0  0  0  0  0  0  0  0  0  0  0
   91.5480   96.1664  -42.1211 H   0  0  0  0  0  0  0  0  0  0  0  0
   91.5691   92.2000  -46.7819 C   0  0  0  0  0  0  0  0  0  0  0  0
   91.6446   91.3357  -47.6126 C   0  0  0  0  0  0  0  0  0  0  0  0
   91.7319   90.2897  -48.6383 C   0  0  0  0  0  0  0  0  0  0  0  0
   90.4779   90.1058  -49.3002 O   0  0  0  0  0  0  0  0  0  0  0  0
   90.0475   91.0746  -50.1637 C   0  0  0  0  0  0  0  0  0  0  0  0
   88.6638   91.0935  -50.3696 C   0  0  0  0  0  0  0  0  0  0  0  0
   88.0827   92.0278  -51.2300 C   0  0  0  0  0  0  0  0  0  0  0  0
   88.8909   92.9455  -51.8938 C   0  0  0  0  0  0  0  0  0  0  0  0
   88.1844   94.0999  -52.9552 Cl  0  0  0  0  0  0  0  0  0  0  0  0
   90.2712   92.9310  -51.7046 C   0  0  0  0  0  0  0  0  0  0  0  0
   90.8504   91.9939  -50.8411 C   0  0  0  0  0  0  0  0  0  0  0  0
   90.3340   96.8844  -45.6511 C   0  0  0  0  0  0  0  0  0  0  0  0
   86.1416   97.4916  -45.2346 C   0  0  0  0  0  0  0  0  0  0  0  0
   87.0445   98.6655  -44.8336 C   0  0  0  0  0  0  0  0  0  0  0  0
   88.5000   98.2073  -44.6459 C   0  0  0  0  0  0  0  0  0  0  0  0
   88.8870   97.0971  -45.5149 N   0  0  0  0  0  0  0  0  0  0  0  0
   88.1502   97.0576  -46.7708 C   0  0  0  0  0  0  0  0  0  0  0  0
   86.6617   96.7944  -46.5097 C   0  0  0  0  0  0  0  0  0  0  0  0
   84.6778   97.7630  -45.3152 N   0  0  0  0  0  0  0  0  0  0  0  0
   82.9991   95.9411  -45.7784 C   0  0  0  0  0  0  0  0  0  0  0  0
   84.0619   96.8852  -46.3357 C   0  0  0  0  0  0  0  0  0  0  0  0
   83.9455   97.6727  -44.0364 C   0  0  0  0  0  0  0  0  0  0  0  0
   83.5035   99.0032  -43.4365 C   0  0  0  0  0  0  0  0  0  0  0  0
 29 30  1  0
 30 28  1  0
 28 31  1  0
 31 32  1  0
 28 22  1  0
 22 23  1  0
 23 24  1  0
 24 25  1  0
 25 21  1  0
 21  1  1  0
  1  2  2  0
  2  3  1  0
  3 10  1  0
 10 11  3  0
 11 12  1  0
 12 13  1  0
 13 14  1  0
 14 15  2  0
 15 16  1  0
 16 17  2  0
 17 18  1  0
 17 19  1  0
 19 20  2  0
  3  4  2  0
  4  5  1  0
  5  6  1  0
  5  7  2  0
  7  8  1  0
 25 26  1  0
 26 27  1  0
 27 22  1  0
  7  1  1  0
 20 14  1  0
  8  9  1  0
M  END
> <minimizedAffinity>
-6.77487

> <CNNscore>
0.6760395765

> <CNNaffinity>
5.2562999725

> <CNN_VS>
3.5534667969

> <CNNaffinity_variance>
1.3993054628

$$$$



 32 34  0  0  0  0  0  0  0  0999 V2000
   90.7403   95.7208  -44.7417 C   0  0  0  0  0  0  0  0  0  0  0  0
   90.8045   94.7945  -45.7997 C   0  0  0  0  0  0  0  0  0  0  0  0
   91.4229   93.5517  -45.6359 C   0  0  0  0  0  0  0  0  0  0  0  0
   91.9979   93.2132  -44.4119 C   0  0  0  0  0  0  0  0  0  0  0  0
   91.9584   94.1257  -43.3573 C   0  0  0  0  0  0  0  0  0  0  0  0
   92.8461   93.5856  -41.5422 I   0  0  0  0  0  0  0  0  0  0  0  0
   91.3399   95.3732  -43.5223 C   0  0  0  0  0  0  0  0  0  0  0  0
   91.3210   96.2895  -42.5047 O   0  0  0  0  0  0  0  0  0  0  0  0
   91.7147   96.0820  -41.6801 H   0  0  0  0  0  0  0  0  0  0  0  0
   91.4700   92.6269  -46.7257 C   0  0  0  0  0  0  0  0  0  0  0  0
   91.5236   91.8504  -47.6406 C   0  0  0  0  0  0  0  0  0  0  0  0
   91.6036   90.9063  -48.7613 C   0  0  0  0  0  0  0  0  0  0  0  0
   90.6203   89.8750  -48.6425 O   0  0  0  0  0  0  0  0  0  0  0  0
   89.8399   89.5891  -49.7280 C   0  0  0  0  0  0  0  0  0  0  0  0
   89.5134   90.6988  -50.5149 C   0  0  0  0  0  0  0  0  0  0  0  0
   88.7184   90.5570  -51.6545 C   0  0  0  0  0  0  0  0  0  0  0  0
   88.2414   89.2982  -52.0065 C   0  0  0  0  0  0  0  0  0  0  0  0
   87.2618   89.1137  -53.4082 Cl  0  0  0  0  0  0  0  0  0  0  0  0
   88.5515   88.1866  -51.2260 C   0  0  0  0  0  0  0  0  0  0  0  0
   89.3491   88.3319  -50.0849 C   0  0  0  0  0  0  0  0  0  0  0  0
   90.0570   97.0575  -44.9590 C   0  0  0  0  0  0  0  0  0  0  0  0
   92.3363  100.1184  -46.8441 C   0  0  0  0  0  0  0  0  0  0  0  0
   90.8144  100.3129  -46.8271 C   0  0  0  0  0  0  0  0  0  0  0  0
   90.0906   98.9981  -46.4942 C   0  0  0  0  0  0  0  0  0  0  0  0
   90.8439   98.1178  -45.6025 N   0  0  0  0  0  0  0  0  0  0  0  0
   91.7436   98.8306  -44.7057 C   0  0  0  0  0  0  0  0  0  0  0  0
   92.8429   99.5418  -45.5050 C   0  0  0  0  0  0  0  0  0  0  0  0
   93.1600  101.2788  -47.2892 N   0  0  0  0  0  0  0  0  0  0  0  0
   94.3476  101.2446  -49.5118 C   0  0  0  0  0  0  0  0  0  0  0  0
   93.0370  101.4465  -48.7548 C   0  0  0  0  0  0  0  0  0  0  0  0
   92.8896  102.5519  -46.5921 C   0  0  0  0  0  0  0  0  0  0  0  0
   92.3850  103.6897  -47.4733 C   0  0  0  0  0  0  0  0  0  0  0  0
 29 30  1  0
 30 28  1  0
 28 31  1  0
 31 32  1  0
 28 22  1  0
 22 23  1  0
 23 24  1  0
 24 25  1  0
 25 21  1  0
 21  1  1  0
  1  2  2  0
  2  3  1  0
  3 10  1  0
 10 11  3  0
 11 12  1  0
 12 13  1  0
 13 14  1  0
 14 15  2  0
 15 16  1  0
 16 17  2  0
 17 18  1  0
 17 19  1  0
 19 20  2  0
  3  4  2  0
  4  5  1  0
  5  6  1  0
  5  7  2  0
  7  8  1  0
 25 26  1  0
 26 27  1  0
 27 22  1  0
  7  1  1  0
 20 14  1  0
  8  9  1  0
M  END
> <minimizedAffinity>
-6.21931

> <CNNscore>
0.5853866339

> <CNNaffinity>
5.0889701843

> <CNN_VS>
2.9790151119

> <CNNaffinity_variance>
1.4729284048

$$$$



 32 34  0  0  0  0  0  0  0  0999 V2000
   91.0011   95.8867  -45.0567 C   0  0  0  0  0  0  0  0  0  0  0  0
   91.0286   94.8912  -46.0516 C   0  0  0  0  0  0  0  0  0  0  0  0
   91.3756   93.5723  -45.7451 C   0  0  0  0  0  0  0  0  0  0  0  0
   91.7109   93.2238  -44.4376 C   0  0  0  0  0  0  0  0  0  0  0  0
   91.7052   94.2012  -43.4420 C   0  0  0  0  0  0  0  0  0  0  0  0
   92.2293   93.6407  -41.4963 I   0  0  0  0  0  0  0  0  0  0  0  0
   91.3592   95.5246  -43.7500 C   0  0  0  0  0  0  0  0  0  0  0  0
   91.3792   96.4993  -42.7882 O   0  0  0  0  0  0  0  0  0  0  0  0
   91.6150   96.2835  -41.9074 H   0  0  0  0  0  0  0  0  0  0  0  0
   91.3910   92.5790  -46.7738 C   0  0  0  0  0  0  0  0  0  0  0  0
   91.4150   91.7386  -47.6317 C   0  0  0  0  0  0  0  0  0  0  0  0
   91.4592   90.7089  -48.6765 C   0  0  0  0  0  0  0  0  0  0  0  0
   90.2024   90.5978  -49.3493 O   0  0  0  0  0  0  0  0  0  0  0  0
   89.7939   89.3625  -49.7693 C   0  0  0  0  0  0  0  0  0  0  0  0
   90.4314   88.2936  -49.1304 C   0  0  0  0  0  0  0  0  0  0  0  0
   90.1167   86.9736  -49.4614 C   0  0  0  0  0  0  0  0  0  0  0  0
   89.1625   86.7205  -50.4420 C   0  0  0  0  0  0  0  0  0  0  0  0
   88.7683   85.0984  -50.8562 Cl  0  0  0  0  0  0  0  0  0  0  0  0
   88.5273   87.7762  -51.0924 C   0  0  0  0  0  0  0  0  0  0  0  0
   88.8444   89.0980  -50.7579 C   0  0  0  0  0  0  0  0  0  0  0  0
   90.6156   97.3055  -45.4298 C   0  0  0  0  0  0  0  0  0  0  0  0
   87.4039   97.7697  -48.1843 C   0  0  0  0  0  0  0  0  0  0  0  0
   87.0202   97.4124  -46.7423 C   0  0  0  0  0  0  0  0  0  0  0  0
   88.2345   96.8880  -45.9586 C   0  0  0  0  0  0  0  0  0  0  0  0
   89.5067   97.4735  -46.3782 N   0  0  0  0  0  0  0  0  0  0  0  0
   89.3764   98.8184  -46.9225 C   0  0  0  0  0  0  0  0  0  0  0  0
   88.5585   98.7934  -48.2200 C   0  0  0  0  0  0  0  0  0  0  0  0
   86.2947   98.1607  -49.1006 N   0  0  0  0  0  0  0  0  0  0  0  0
   86.2170   99.6237  -51.1513 C   0  0  0  0  0  0  0  0  0  0  0  0
   86.8313   98.4101  -50.4575 C   0  0  0  0  0  0  0  0  0  0  0  0
   85.1556   97.2228  -49.1525 C   0  0  0  0  0  0  0  0  0  0  0  0
   83.7809   97.8454  -48.9328 C   0  0  0  0  0  0  0  0  0  0  0  0
 29 30  1  0
 30 28  1  0
 28 31  1  0
 31 32  1  0
 28 22  1  0
 22 23  1  0
 23 24  1  0
 24 25  1  0
 25 21  1  0
 21  1  1  0
  1  2  2  0
  2  3  1  0
  3 10  1  0
 10 11  3  0
 11 12  1  0
 12 13  1  0
 13 14  1  0
 14 15  2  0
 15 16  1  0
 16 17  2  0
 17 18  1  0
 17 19  1  0
 19 20  2  0
  3  4  2  0
  4  5  1  0
  5  6  1  0
  5  7  2  0
  7  8  1  0
 25 26  1  0
 26 27  1  0
 27 22  1  0
  7  1  1  0
 20 14  1  0
  8  9  1  0
M  END
> <minimizedAffinity>
-5.79780

> <CNNscore>
0.5761529803

> <CNNaffinity>
4.9818706512

> <CNN_VS>
2.8703196049

> <CNNaffinity_variance>
1.2340211868

$$$$



 32 34  0  0  0  0  0  0  0  0999 V2000
   90.8230   95.6713  -45.0901 C   0  0  0  0  0  0  0  0  0  0  0  0
   90.9236   94.6542  -46.0580 C   0  0  0  0  0  0  0  0  0  0  0  0
   91.4550   93.4016  -45.7378 C   0  0  0  0  0  0  0  0  0  0  0  0
   91.9051   93.1436  -44.4438 C   0  0  0  0  0  0  0  0  0  0  0  0
   91.8285   94.1456  -43.4760 C   0  0  0  0  0  0  0  0  0  0  0  0
   92.5287   93.7232  -41.5510 I   0  0  0  0  0  0  0  0  0  0  0  0
   91.2974   95.4026  -43.7979 C   0  0  0  0  0  0  0  0  0  0  0  0
   91.2448   96.4041  -42.8653 O   0  0  0  0  0  0  0  0  0  0  0  0
   91.5554   96.2504  -41.9947 H   0  0  0  0  0  0  0  0  0  0  0  0
   91.5414   92.3840  -46.7388 C   0  0  0  0  0  0  0  0  0  0  0  0
   91.6202   91.5208  -47.5704 C   0  0  0  0  0  0  0  0  0  0  0  0
   91.7280   90.4595  -48.5782 C   0  0  0  0  0  0  0  0  0  0  0  0
   91.3236   90.9256  -49.8681 O   0  0  0  0  0  0  0  0  0  0  0  0
   89.9903   91.1135  -50.1057 C   0  0  0  0  0  0  0  0  0  0  0  0
   89.1924   89.9941  -49.8460 C   0  0  0  0  0  0  0  0  0  0  0  0
   87.8110   90.0396  -50.0474 C   0  0  0  0  0  0  0  0  0  0  0  0
   87.2240   91.2104  -50.5173 C   0  0  0  0  0  0  0  0  0  0  0  0
   85.5237   91.2761  -50.7683 Cl  0  0  0  0  0  0  0  0  0  0  0  0
   88.0087   92.3292  -50.7887 C   0  0  0  0  0  0  0  0  0  0  0  0
   89.3928   92.2805  -50.5851 C   0  0  0  0  0  0  0  0  0  0  0  0
   90.2369   97.0158  -45.4770 C   0  0  0  0  0  0  0  0  0  0  0  0
   86.6943   96.9669  -47.8362 C   0  0  0  0  0  0  0  0  0  0  0  0
   86.5160   97.2723  -46.3432 C   0  0  0  0  0  0  0  0  0  0  0  0
   87.7671   96.8761  -45.5423 C   0  0  0  0  0  0  0  0  0  0  0  0
   89.0152   97.0069  -46.2924 N   0  0  0  0  0  0  0  0  0  0  0  0
   88.9693   98.0359  -47.3224 C   0  0  0  0  0  0  0  0  0  0  0  0
   87.9484   97.6639  -48.4052 C   0  0  0  0  0  0  0  0  0  0  0  0
   85.5064   97.1719  -48.7135 N   0  0  0  0  0  0  0  0  0  0  0  0
   85.6240   94.7007  -49.1943 C   0  0  0  0  0  0  0  0  0  0  0  0
   85.4604   96.1142  -49.7482 C   0  0  0  0  0  0  0  0  0  0  0  0
   84.2112   97.2750  -48.0123 C   0  0  0  0  0  0  0  0  0  0  0  0
   83.4686   98.5946  -48.1935 C   0  0  0  0  0  0  0  0  0  0  0  0
 29 30  1  0
 30 28  1  0
 28 31  1  0
 31 32  1  0
 28 22  1  0
 22 23  1  0
 23 24  1  0
 24 25  1  0
 25 21  1  0
 21  1  1  0
  1  2  2  0
  2  3  1  0
  3 10  1  0
 10 11  3  0
 11 12  1  0
 12 13  1  0
 13 14  1  0
 14 15  2  0
 15 16  1  0
 16 17  2  0
 17 18  1  0
 17 19  1  0
 19 20  2  0
  3  4  2  0
  4  5  1  0
  5  6  1  0
  5  7  2  0
  7  8  1  0
 25 26  1  0
 26 27  1  0
 27 22  1  0
  7  1  1  0
 20 14  1  0
  8  9  1  0
M  END
> <minimizedAffinity>
-5.96762

> <CNNscore>
0.5095456839

> <CNNaffinity>
4.9231071472

> <CNN_VS>
2.5085480213

> <CNNaffinity_variance>
1.5532636642

$$$$



 32 34  0  0  0  0  0  0  0  0999 V2000
   91.1513   95.9126  -45.1150 C   0  0  0  0  0  0  0  0  0  0  0  0
   91.2126   94.8657  -46.0541 C   0  0  0  0  0  0  0  0  0  0  0  0
   91.5107   93.5580  -45.6604 C   0  0  0  0  0  0  0  0  0  0  0  0
   91.7626   93.2723  -44.3194 C   0  0  0  0  0  0  0  0  0  0  0  0
   91.7226   94.3007  -43.3774 C   0  0  0  0  0  0  0  0  0  0  0  0
   92.1215   93.8330  -41.3782 I   0  0  0  0  0  0  0  0  0  0  0  0
   91.4256   95.6127  -43.7727 C   0  0  0  0  0  0  0  0  0  0  0  0
   91.4132   96.6361  -42.8628 O   0  0  0  0  0  0  0  0  0  0  0  0
   91.5932   96.4624  -41.9598 H   0  0  0  0  0  0  0  0  0  0  0  0
   91.5619   92.5118  -46.6340 C   0  0  0  0  0  0  0  0  0  0  0  0
   91.6123   91.6252  -47.4429 C   0  0  0  0  0  0  0  0  0  0  0  0
   91.6863   90.5362  -48.4238 C   0  0  0  0  0  0  0  0  0  0  0  0
   91.3005   90.9834  -49.7260 O   0  0  0  0  0  0  0  0  0  0  0  0
   89.9676   91.0905  -50.0110 C   0  0  0  0  0  0  0  0  0  0  0  0
   89.2318   89.9219  -49.7871 C   0  0  0  0  0  0  0  0  0  0  0  0
   87.8584   89.8836  -50.0385 C   0  0  0  0  0  0  0  0  0  0  0  0
   87.2173   91.0196  -50.5228 C   0  0  0  0  0  0  0  0  0  0  0  0
   85.5263   90.9821  -50.8353 Cl  0  0  0  0  0  0  0  0  0  0  0  0
   87.9404   92.1868  -50.7589 C   0  0  0  0  0  0  0  0  0  0  0  0
   89.3165   92.2222  -50.5052 C   0  0  0  0  0  0  0  0  0  0  0  0
   90.8209   97.3173  -45.5824 C   0  0  0  0  0  0  0  0  0  0  0  0
   86.7409   98.5216  -45.4361 C   0  0  0  0  0  0  0  0  0  0  0  0
   87.0037   97.0260  -45.6555 C   0  0  0  0  0  0  0  0  0  0  0  0
   88.4589   96.7750  -46.0833 C   0  0  0  0  0  0  0  0  0  0  0  0
   89.4128   97.7314  -45.5240 N   0  0  0  0  0  0  0  0  0  0  0  0
   88.9986   98.2831  -44.2410 C   0  0  0  0  0  0  0  0  0  0  0  0
   87.7222   99.1179  -44.4047 C   0  0  0  0  0  0  0  0  0  0  0  0
   85.3338   98.9251  -45.1527 N   0  0  0  0  0  0  0  0  0  0  0  0
   83.3066   98.2471  -43.8176 C   0  0  0  0  0  0  0  0  0  0  0  0
   84.6300   97.8268  -44.4529 C   0  0  0  0  0  0  0  0  0  0  0  0
   85.1749  100.1981  -44.4219 C   0  0  0  0  0  0  0  0  0  0  0  0
   84.7520  101.3938  -45.2686 C   0  0  0  0  0  0  0  0  0  0  0  0
 29 30  1  0
 30 28  1  0
 28 31  1  0
 31 32  1  0
 28 22  1  0
 22 23  1  0
 23 24  1  0
 24 25  1  0
 25 21  1  0
 21  1  1  0
  1  2  2  0
  2  3  1  0
  3 10  1  0
 10 11  3  0
 11 12  1  0
 12 13  1  0
 13 14  1  0
 14 15  2  0
 15 16  1  0
 16 17  2  0
 17 18  1  0
 17 19  1  0
 19 20  2  0
  3  4  2  0
  4  5  1  0
  5  6  1  0
  5  7  2  0
  7  8  1  0
 25 26  1  0
 26 27  1  0
 27 22  1  0
  7  1  1  0
 20 14  1  0
  8  9  1  0
M  END
> <minimizedAffinity>
-6.37629

> <CNNscore>
0.5009799600

> <CNNaffinity>
5.1775002480

> <CNN_VS>
2.5938239098

> <CNNaffinity_variance>
1.0904048681

$$$$
