


 21 23  0  0  0  0  0  0  0  0999 V2000
  -32.6688  -10.0732   13.7069 N   0  0  0  0  0  0  0  0  0  0  0  0
  -32.5163  -10.9375   14.1529 H   0  0  0  0  0  0  0  0  0  0  0  0
  -31.8908   -8.9536   14.0570 C   0  0  0  0  0  0  0  0  0  0  0  0
  -30.9161   -9.0864   15.0018 N   0  0  0  0  0  0  0  0  0  0  0  0
  -30.1778   -8.0066   15.3302 C   0  0  0  0  0  0  0  0  0  0  0  0
  -30.2660   -6.7602   14.8344 N   0  0  0  0  0  0  0  0  0  0  0  0
  -31.2367   -6.6765   13.9130 C   0  0  0  0  0  0  0  0  0  0  0  0
  -31.6016   -5.5630   13.2131 N   0  0  0  0  0  0  0  0  0  0  0  0
  -32.6182   -5.7752   12.3496 N   0  0  0  0  0  0  0  0  0  0  0  0
  -32.8996   -7.0724   12.5234 C   0  0  0  0  0  0  0  0  0  0  0  0
  -32.0688   -7.6914   13.4807 C   0  0  0  0  0  0  0  0  0  0  0  0
  -31.1650   -4.6880   13.3269 H   0  0  0  0  0  0  0  0  0  0  0  0
  -33.6396   -9.9600   12.7441 N   0  0  0  0  0  0  0  0  0  0  0  0
  -33.3740  -10.0027   11.7971 H   0  0  0  0  0  0  0  0  0  0  0  0
  -39.0081   -9.0537   13.8250 F   0  0  0  0  0  0  0  0  0  0  0  0
  -37.7127   -9.2849   13.5757 C   0  0  0  0  0  0  0  0  0  0  0  0
  -36.8002   -9.2693   14.6221 C   0  0  0  0  0  0  0  0  0  0  0  0
  -35.4478   -9.5073   14.3612 C   0  0  0  0  0  0  0  0  0  0  0  0
  -35.0066   -9.7846   13.0591 C   0  0  0  0  0  0  0  0  0  0  0  0
  -35.9460   -9.7661   12.0158 C   0  0  0  0  0  0  0  0  0  0  0  0
  -37.2982   -9.5274   12.2732 C   0  0  0  0  0  0  0  0  0  0  0  0
 15 16  1  0
 16 17  2  0
 17 18  1  0
 18 19  2  0
 19 13  1  0
 13  1  1  0
  1  3  1  0
  3  4  2  0
  4  5  1  0
  5  6  2  0
  6  7  1  0
  7  8  1  0
  8  9  1  0
  9 10  2  0
 10 11  1  0
 19 20  1  0
 20 21  2  0
 21 16  1  0
 11  3  1  0
 11  7  2  0
 13 14  1  0
  1  2  1  0
  8 12  1  0
M  END
> <minimizedAffinity>
-7.31931

> <CNNscore>
0.9012004137

> <CNNaffinity>
5.5820660591

> <CNN_VS>
5.0305600166

> <CNNaffinity_variance>
0.1146585122

$$$$



 21 23  0  0  0  0  0  0  0  0999 V2000
  -32.9326   -9.9551   13.5256 N   0  0  0  0  0  0  0  0  0  0  0  0
  -32.4309  -10.5013   14.1730 H   0  0  0  0  0  0  0  0  0  0  0  0
  -32.5557   -8.6195   13.2901 C   0  0  0  0  0  0  0  0  0  0  0  0
  -33.1593   -7.9223   12.2852 N   0  0  0  0  0  0  0  0  0  0  0  0
  -32.7892   -6.6437   12.0679 C   0  0  0  0  0  0  0  0  0  0  0  0
  -31.8702   -5.9223   12.7329 N   0  0  0  0  0  0  0  0  0  0  0  0
  -31.3026   -6.6475   13.7078 C   0  0  0  0  0  0  0  0  0  0  0  0
  -30.3308   -6.2321   14.5713 N   0  0  0  0  0  0  0  0  0  0  0  0
  -29.9460   -7.1819   15.4510 N   0  0  0  0  0  0  0  0  0  0  0  0
  -30.7066   -8.2319   15.1175 C   0  0  0  0  0  0  0  0  0  0  0  0
  -31.5775   -7.9597   14.0416 C   0  0  0  0  0  0  0  0  0  0  0  0
  -29.9465   -5.3258   14.5545 H   0  0  0  0  0  0  0  0  0  0  0  0
  -33.9992  -10.4958   12.8530 N   0  0  0  0  0  0  0  0  0  0  0  0
  -33.8269  -11.1710   12.1575 H   0  0  0  0  0  0  0  0  0  0  0  0
  -39.2175   -8.8200   13.7314 F   0  0  0  0  0  0  0  0  0  0  0  0
  -37.9602   -9.2360   13.5318 C   0  0  0  0  0  0  0  0  0  0  0  0
  -37.0724   -9.2708   14.5987 C   0  0  0  0  0  0  0  0  0  0  0  0
  -35.7593   -9.7018   14.3894 C   0  0  0  0  0  0  0  0  0  0  0  0
  -35.3360  -10.1211   13.1199 C   0  0  0  0  0  0  0  0  0  0  0  0
  -36.2459  -10.0489   12.0531 C   0  0  0  0  0  0  0  0  0  0  0  0
  -37.5586   -9.6175   12.2588 C   0  0  0  0  0  0  0  0  0  0  0  0
 15 16  1  0
 16 17  2  0
 17 18  1  0
 18 19  2  0
 19 13  1  0
 13  1  1  0
  1  3  1  0
  3  4  2  0
  4  5  1  0
  5  6  2  0
  6  7  1  0
  7  8  1  0
  8  9  1  0
  9 10  2  0
 10 11  1  0
 19 20  1  0
 20 21  2  0
 21 16  1  0
 11  3  1  0
 11  7  2  0
 13 14  1  0
  1  2  1  0
  8 12  1  0
M  END
> <minimizedAffinity>
-7.30716

> <CNNscore>
0.8543039560

> <CNNaffinity>
5.1463065147

> <CNN_VS>
4.3965101242

> <CNNaffinity_variance>
0.1056250110

$$$$



 21 23  0  0  0  0  0  0  0  0999 V2000
  -34.2607   -9.7523   10.0809 N   0  0  0  0  0  0  0  0  0  0  0  0
  -33.8636  -10.6370   10.2509 H   0  0  0  0  0  0  0  0  0  0  0  0
  -33.5978   -8.8317    9.2475 C   0  0  0  0  0  0  0  0  0  0  0  0
  -32.8799   -7.8177    9.8102 N   0  0  0  0  0  0  0  0  0  0  0  0
  -32.2501   -6.9409    9.0018 C   0  0  0  0  0  0  0  0  0  0  0  0
  -32.2236   -6.9238    7.6579 N   0  0  0  0  0  0  0  0  0  0  0  0
  -32.9431   -7.9350    7.1497 C   0  0  0  0  0  0  0  0  0  0  0  0
  -33.1349   -8.2142    5.8276 N   0  0  0  0  0  0  0  0  0  0  0  0
  -33.9109   -9.2980    5.6100 N   0  0  0  0  0  0  0  0  0  0  0  0
  -34.2176   -9.7062    6.8476 C   0  0  0  0  0  0  0  0  0  0  0  0
  -33.6392   -8.9008    7.8509 C   0  0  0  0  0  0  0  0  0  0  0  0
  -32.7445   -7.6765    5.1011 H   0  0  0  0  0  0  0  0  0  0  0  0
  -35.4601   -9.4167   10.6563 N   0  0  0  0  0  0  0  0  0  0  0  0
  -36.2219   -9.2018   10.0709 H   0  0  0  0  0  0  0  0  0  0  0  0
  -36.0504   -9.4549   16.1754 F   0  0  0  0  0  0  0  0  0  0  0  0
  -35.9182   -9.4321   14.8429 C   0  0  0  0  0  0  0  0  0  0  0  0
  -37.0516   -9.4591   14.0413 C   0  0  0  0  0  0  0  0  0  0  0  0
  -36.9132   -9.4387   12.6506 C   0  0  0  0  0  0  0  0  0  0  0  0
  -35.6446   -9.3677   12.0570 C   0  0  0  0  0  0  0  0  0  0  0  0
  -34.5145   -9.3702   12.8903 C   0  0  0  0  0  0  0  0  0  0  0  0
  -34.6495   -9.3917   14.2807 C   0  0  0  0  0  0  0  0  0  0  0  0
 15 16  1  0
 16 17  2  0
 17 18  1  0
 18 19  2  0
 19 13  1  0
 13  1  1  0
  1  3  1  0
  3  4  2  0
  4  5  1  0
  5  6  2  0
  6  7  1  0
  7  8  1  0
  8  9  1  0
  9 10  2  0
 10 11  1  0
 19 20  1  0
 20 21  2  0
 21 16  1  0
 11  3  1  0
 11  7  2  0
 13 14  1  0
  1  2  1  0
  8 12  1  0
M  END
> <minimizedAffinity>
-6.37726

> <CNNscore>
0.6819715500

> <CNNaffinity>
5.3043179512

> <CNN_VS>
3.6173939705

> <CNNaffinity_variance>
0.0402041078

$$$$



 21 23  0  0  0  0  0  0  0  0999 V2000
  -33.6372   -9.6245    8.5863 N   0  0  0  0  0  0  0  0  0  0  0  0
  -33.0302  -10.2628    9.0260 H   0  0  0  0  0  0  0  0  0  0  0  0
  -33.3488   -9.1580    7.2899 C   0  0  0  0  0  0  0  0  0  0  0  0
  -33.0132   -7.8482    7.1105 N   0  0  0  0  0  0  0  0  0  0  0  0
  -32.7403   -7.4121    5.8639 C   0  0  0  0  0  0  0  0  0  0  0  0
  -32.7482   -8.1166    4.7189 N   0  0  0  0  0  0  0  0  0  0  0  0
  -33.0851   -9.3951    4.9430 C   0  0  0  0  0  0  0  0  0  0  0  0
  -33.1953  -10.3841    4.0089 N   0  0  0  0  0  0  0  0  0  0  0  0
  -33.5545  -11.5792    4.5255 N   0  0  0  0  0  0  0  0  0  0  0  0
  -33.6771  -11.3211    5.8334 C   0  0  0  0  0  0  0  0  0  0  0  0
  -33.3917   -9.9782    6.1575 C   0  0  0  0  0  0  0  0  0  0  0  0
  -33.0287  -10.2399    3.0494 H   0  0  0  0  0  0  0  0  0  0  0  0
  -34.7640   -9.1899    9.2370 N   0  0  0  0  0  0  0  0  0  0  0  0
  -35.5176   -8.8500    8.7024 H   0  0  0  0  0  0  0  0  0  0  0  0
  -35.0429   -9.4544   14.7744 F   0  0  0  0  0  0  0  0  0  0  0  0
  -34.9894   -9.3805   13.4383 C   0  0  0  0  0  0  0  0  0  0  0  0
  -36.1037   -9.7304   12.6875 C   0  0  0  0  0  0  0  0  0  0  0  0
  -36.0465   -9.6565   11.2929 C   0  0  0  0  0  0  0  0  0  0  0  0
  -34.8850   -9.2110   10.6454 C   0  0  0  0  0  0  0  0  0  0  0  0
  -33.7637   -8.8906   11.4273 C   0  0  0  0  0  0  0  0  0  0  0  0
  -33.8173   -8.9646   12.8213 C   0  0  0  0  0  0  0  0  0  0  0  0
 15 16  1  0
 16 17  2  0
 17 18  1  0
 18 19  2  0
 19 13  1  0
 13  1  1  0
  1  3  1  0
  3  4  2  0
  4  5  1  0
  5  6  2  0
  6  7  1  0
  7  8  1  0
  8  9  1  0
  9 10  2  0
 10 11  1  0
 19 20  1  0
 20 21  2  0
 21 16  1  0
 11  3  1  0
 11  7  2  0
 13 14  1  0
  1  2  1  0
  8 12  1  0
M  END
> <minimizedAffinity>
-5.92320

> <CNNscore>
0.6505549550

> <CNNaffinity>
5.0411071777

> <CNN_VS>
3.2795171738

> <CNNaffinity_variance>
0.0217353757

$$$$



 21 23  0  0  0  0  0  0  0  0999 V2000
  -33.9936   -9.8447    9.4758 N   0  0  0  0  0  0  0  0  0  0  0  0
  -33.3633  -10.3754   10.0147 H   0  0  0  0  0  0  0  0  0  0  0  0
  -33.7428   -9.6312    8.1072 C   0  0  0  0  0  0  0  0  0  0  0  0
  -33.9408  -10.6519    7.2246 N   0  0  0  0  0  0  0  0  0  0  0  0
  -33.6959  -10.4362    5.9160 C   0  0  0  0  0  0  0  0  0  0  0  0
  -33.2682   -9.3055    5.3280 N   0  0  0  0  0  0  0  0  0  0  0  0
  -33.0853   -8.3324    6.2325 C   0  0  0  0  0  0  0  0  0  0  0  0
  -32.6540   -7.0614    5.9854 N   0  0  0  0  0  0  0  0  0  0  0  0
  -32.5610   -6.2959    7.0943 N   0  0  0  0  0  0  0  0  0  0  0  0
  -32.9458   -7.1268    8.0709 C   0  0  0  0  0  0  0  0  0  0  0  0
  -33.2913   -8.4095    7.5966 C   0  0  0  0  0  0  0  0  0  0  0  0
  -32.4316   -6.7335    5.0842 H   0  0  0  0  0  0  0  0  0  0  0  0
  -35.1161   -9.3134   10.0586 N   0  0  0  0  0  0  0  0  0  0  0  0
  -35.7907   -8.8857    9.4831 H   0  0  0  0  0  0  0  0  0  0  0  0
  -35.8305   -9.6860   15.5506 F   0  0  0  0  0  0  0  0  0  0  0  0
  -35.6705   -9.5845   14.2248 C   0  0  0  0  0  0  0  0  0  0  0  0
  -36.7609   -9.7746   13.3865 C   0  0  0  0  0  0  0  0  0  0  0  0
  -36.5930   -9.6719   12.0027 C   0  0  0  0  0  0  0  0  0  0  0  0
  -35.3418   -9.3562   11.4536 C   0  0  0  0  0  0  0  0  0  0  0  0
  -34.2503   -9.1971   12.3223 C   0  0  0  0  0  0  0  0  0  0  0  0
  -34.4147   -9.3002   13.7059 C   0  0  0  0  0  0  0  0  0  0  0  0
 15 16  1  0
 16 17  2  0
 17 18  1  0
 18 19  2  0
 19 13  1  0
 13  1  1  0
  1  3  1  0
  3  4  2  0
  4  5  1  0
  5  6  2  0
  6  7  1  0
  7  8  1  0
  8  9  1  0
  9 10  2  0
 10 11  1  0
 19 20  1  0
 20 21  2  0
 21 16  1  0
 11  3  1  0
 11  7  2  0
 13 14  1  0
  1  2  1  0
  8 12  1  0
M  END
> <minimizedAffinity>
-6.24545

> <CNNscore>
0.6319528222

> <CNNaffinity>
5.2624173164

> <CNN_VS>
3.3255994320

> <CNNaffinity_variance>
0.0931257829

$$$$



 21 23  0  0  0  0  0  0  0  0999 V2000
  -33.5226  -10.9356   12.1381 N   0  0  0  0  0  0  0  0  0  0  0  0
  -33.4928  -10.8955   11.1548 H   0  0  0  0  0  0  0  0  0  0  0  0
  -32.4387  -10.4528   12.8953 C   0  0  0  0  0  0  0  0  0  0  0  0
  -31.5526  -11.3389   13.4338 N   0  0  0  0  0  0  0  0  0  0  0  0
  -30.5187  -10.8650   14.1586 C   0  0  0  0  0  0  0  0  0  0  0  0
  -30.2196   -9.5842   14.4369 N   0  0  0  0  0  0  0  0  0  0  0  0
  -31.1171   -8.7509   13.8906 C   0  0  0  0  0  0  0  0  0  0  0  0
  -31.1219   -7.3888   13.9769 N   0  0  0  0  0  0  0  0  0  0  0  0
  -32.1539   -6.8087   13.3268 N   0  0  0  0  0  0  0  0  0  0  0  0
  -32.8201   -7.8533   12.8197 C   0  0  0  0  0  0  0  0  0  0  0  0
  -32.2202   -9.0914   13.1314 C   0  0  0  0  0  0  0  0  0  0  0  0
  -30.4379   -6.8775   14.4667 H   0  0  0  0  0  0  0  0  0  0  0  0
  -34.6207  -11.4620   12.7700 N   0  0  0  0  0  0  0  0  0  0  0  0
  -34.6312  -12.4244   12.9773 H   0  0  0  0  0  0  0  0  0  0  0  0
  -38.9514   -8.2145   13.9984 F   0  0  0  0  0  0  0  0  0  0  0  0
  -37.9092   -9.0069   13.7163 C   0  0  0  0  0  0  0  0  0  0  0  0
  -36.8927   -9.1601   14.6495 C   0  0  0  0  0  0  0  0  0  0  0  0
  -35.8034   -9.9845   14.3535 C   0  0  0  0  0  0  0  0  0  0  0  0
  -35.7376  -10.6761   13.1353 C   0  0  0  0  0  0  0  0  0  0  0  0
  -36.7649  -10.4809   12.1983 C   0  0  0  0  0  0  0  0  0  0  0  0
  -37.8544   -9.6566   12.4907 C   0  0  0  0  0  0  0  0  0  0  0  0
 15 16  1  0
 16 17  2  0
 17 18  1  0
 18 19  2  0
 19 13  1  0
 13  1  1  0
  1  3  1  0
  3  4  2  0
  4  5  1  0
  5  6  2  0
  6  7  1  0
  7  8  1  0
  8  9  1  0
  9 10  2  0
 10 11  1  0
 19 20  1  0
 20 21  2  0
 21 16  1  0
 11  3  1  0
 11  7  2  0
 13 14  1  0
  1  2  1  0
  8 12  1  0
M  END
> <minimizedAffinity>
-6.81829

> <CNNscore>
0.5607783794

> <CNNaffinity>
4.9967613220

> <CNN_VS>
2.8020756245

> <CNNaffinity_variance>
0.0653644577

$$$$



 21 23  0  0  0  0  0  0  0  0999 V2000
  -30.7238   -9.4099   12.6526 N   0  0  0  0  0  0  0  0  0  0  0  0
  -30.4777  -10.3631   12.6579 H   0  0  0  0  0  0  0  0  0  0  0  0
  -29.9219   -8.4722   13.3303 C   0  0  0  0  0  0  0  0  0  0  0  0
  -29.7168   -8.6138   14.6712 N   0  0  0  0  0  0  0  0  0  0  0  0
  -28.9478   -7.7087   15.3102 C   0  0  0  0  0  0  0  0  0  0  0  0
  -28.3217   -6.6385   14.7906 N   0  0  0  0  0  0  0  0  0  0  0  0
  -28.5532   -6.5383   13.4735 C   0  0  0  0  0  0  0  0  0  0  0  0
  -28.0785   -5.5724   12.6343 N   0  0  0  0  0  0  0  0  0  0  0  0
  -28.4784   -5.7238   11.3531 N   0  0  0  0  0  0  0  0  0  0  0  0
  -29.2364   -6.8263   11.3991 C   0  0  0  0  0  0  0  0  0  0  0  0
  -29.3171   -7.3841   12.6922 C   0  0  0  0  0  0  0  0  0  0  0  0
  -27.4993   -4.8350   12.9344 H   0  0  0  0  0  0  0  0  0  0  0  0
  -31.8483   -8.9954   11.9848 N   0  0  0  0  0  0  0  0  0  0  0  0
  -31.7426   -8.5301   11.1237 H   0  0  0  0  0  0  0  0  0  0  0  0
  -37.0512   -9.6245   13.8135 F   0  0  0  0  0  0  0  0  0  0  0  0
  -35.7909   -9.4853   13.3825 C   0  0  0  0  0  0  0  0  0  0  0  0
  -34.7721   -9.2720   14.3016 C   0  0  0  0  0  0  0  0  0  0  0  0
  -33.4573   -9.1234   13.8513 C   0  0  0  0  0  0  0  0  0  0  0  0
  -33.1529   -9.2106   12.4851 C   0  0  0  0  0  0  0  0  0  0  0  0
  -34.2057   -9.3985   11.5754 C   0  0  0  0  0  0  0  0  0  0  0  0
  -35.5211   -9.5462   12.0222 C   0  0  0  0  0  0  0  0  0  0  0  0
 15 16  1  0
 16 17  2  0
 17 18  1  0
 18 19  2  0
 19 13  1  0
 13  1  1  0
  1  3  1  0
  3  4  2  0
  4  5  1  0
  5  6  2  0
  6  7  1  0
  7  8  1  0
  8  9  1  0
  9 10  2  0
 10 11  1  0
 19 20  1  0
 20 21  2  0
 21 16  1  0
 11  3  1  0
 11  7  2  0
 13 14  1  0
  1  2  1  0
  8 12  1  0
M  END
> <minimizedAffinity>
-5.72068

> <CNNscore>
0.5477019548

> <CNNaffinity>
5.1694078445

> <CNN_VS>
2.8312947750

> <CNNaffinity_variance>
0.2700264156

$$$$



 21 23  0  0  0  0  0  0  0  0999 V2000
  -30.6638   -9.3272   15.0792 N   0  0  0  0  0  0  0  0  0  0  0  0
  -30.9146   -9.3536   16.0308 H   0  0  0  0  0  0  0  0  0  0  0  0
  -31.6576   -9.1786   14.0934 C   0  0  0  0  0  0  0  0  0  0  0  0
  -32.3339  -10.2791   13.6554 N   0  0  0  0  0  0  0  0  0  0  0  0
  -33.2830  -10.1249   12.7097 C   0  0  0  0  0  0  0  0  0  0  0  0
  -33.6796   -8.9885   12.1108 N   0  0  0  0  0  0  0  0  0  0  0  0
  -32.9872   -7.9358   12.5699 C   0  0  0  0  0  0  0  0  0  0  0  0
  -33.1270   -6.6358   12.1786 N   0  0  0  0  0  0  0  0  0  0  0  0
  -32.2904   -5.7864   12.8133 N   0  0  0  0  0  0  0  0  0  0  0  0
  -31.5992   -6.5923   13.6288 C   0  0  0  0  0  0  0  0  0  0  0  0
  -31.9915   -7.9435   13.5278 C   0  0  0  0  0  0  0  0  0  0  0  0
  -33.7763   -6.3447   11.4982 H   0  0  0  0  0  0  0  0  0  0  0  0
  -29.3458   -9.4351   14.7139 N   0  0  0  0  0  0  0  0  0  0  0  0
  -28.9226  -10.3240   14.7265 H   0  0  0  0  0  0  0  0  0  0  0  0
  -26.5070   -4.8966   13.2463 F   0  0  0  0  0  0  0  0  0  0  0  0
  -27.1798   -6.0014   13.5935 C   0  0  0  0  0  0  0  0  0  0  0  0
  -27.5015   -6.9410   12.6232 C   0  0  0  0  0  0  0  0  0  0  0  0
  -28.2066   -8.0923   12.9852 C   0  0  0  0  0  0  0  0  0  0  0  0
  -28.5717   -8.3196   14.3201 C   0  0  0  0  0  0  0  0  0  0  0  0
  -28.2588   -7.3399   15.2759 C   0  0  0  0  0  0  0  0  0  0  0  0
  -27.5551   -6.1876   14.9170 C   0  0  0  0  0  0  0  0  0  0  0  0
 15 16  1  0
 16 17  2  0
 17 18  1  0
 18 19  2  0
 19 13  1  0
 13  1  1  0
  1  3  1  0
  3  4  2  0
  4  5  1  0
  5  6  2  0
  6  7  1  0
  7  8  1  0
  8  9  1  0
  9 10  2  0
 10 11  1  0
 19 20  1  0
 20 21  2  0
 21 16  1  0
 11  3  1  0
 11  7  2  0
 13 14  1  0
  1  2  1  0
  8 12  1  0
M  END
> <minimizedAffinity>
-6.15113

> <CNNscore>
0.5151826143

> <CNNaffinity>
5.1334156990

> <CNN_VS>
2.6446464062

> <CNNaffinity_variance>
0.1179013923

$$$$



 21 23  0  0  0  0  0  0  0  0999 V2000
  -32.2674  -10.1400   12.5713 N   0  0  0  0  0  0  0  0  0  0  0  0
  -31.6955  -10.9191   12.3834 H   0  0  0  0  0  0  0  0  0  0  0  0
  -31.7503   -9.0436   13.2868 C   0  0  0  0  0  0  0  0  0  0  0  0
  -31.3873   -9.2083   14.5911 N   0  0  0  0  0  0  0  0  0  0  0  0
  -30.8944   -8.1504   15.2671 C   0  0  0  0  0  0  0  0  0  0  0  0
  -30.6966   -6.8988   14.8180 N   0  0  0  0  0  0  0  0  0  0  0  0
  -31.0690   -6.7835   13.5349 C   0  0  0  0  0  0  0  0  0  0  0  0
  -31.0099   -5.6562   12.7678 N   0  0  0  0  0  0  0  0  0  0  0  0
  -31.4568   -5.8358   11.5060 N   0  0  0  0  0  0  0  0  0  0  0  0
  -31.8125   -7.1264   11.4898 C   0  0  0  0  0  0  0  0  0  0  0  0
  -31.5893   -7.7733   12.7233 C   0  0  0  0  0  0  0  0  0  0  0  0
  -30.6734   -4.7937   13.1026 H   0  0  0  0  0  0  0  0  0  0  0  0
  -33.5682  -10.1231   12.1357 N   0  0  0  0  0  0  0  0  0  0  0  0
  -34.2892  -10.2519   12.7936 H   0  0  0  0  0  0  0  0  0  0  0  0
  -34.6806   -9.2540    6.7674 F   0  0  0  0  0  0  0  0  0  0  0  0
  -34.4284   -9.4683    8.0651 C   0  0  0  0  0  0  0  0  0  0  0  0
  -35.1984   -8.8290    9.0275 C   0  0  0  0  0  0  0  0  0  0  0  0
  -34.9328   -9.0502   10.3818 C   0  0  0  0  0  0  0  0  0  0  0  0
  -33.9136   -9.9279   10.7787 C   0  0  0  0  0  0  0  0  0  0  0  0
  -33.1320  -10.5391    9.7853 C   0  0  0  0  0  0  0  0  0  0  0  0
  -33.3942  -10.3191    8.4308 C   0  0  0  0  0  0  0  0  0  0  0  0
 15 16  1  0
 16 17  2  0
 17 18  1  0
 18 19  2  0
 19 13  1  0
 13  1  1  0
  1  3  1  0
  3  4  2  0
  4  5  1  0
  5  6  2  0
  6  7  1  0
  7  8  1  0
  8  9  1  0
  9 10  2  0
 10 11  1  0
 19 20  1  0
 20 21  2  0
 21 16  1  0
 11  3  1  0
 11  7  2  0
 13 14  1  0
  1  2  1  0
  8 12  1  0
M  END
> <minimizedAffinity>
-5.94832

> <CNNscore>
0.4544760287

> <CNNaffinity>
4.8031558990

> <CNN_VS>
2.1829192638

> <CNNaffinity_variance>
0.2605098784

$$$$
