


 27 28  0  0  0  0  0  0  0  0999 V2000
   37.1353    0.2015   11.4456 C   0  0  0  0  0  0  0  0  0  0  0  0
   38.5699    0.1612   11.5528 O   0  0  0  0  0  0  0  0  0  0  0  0
   38.9699    1.2353   12.4276 C   0  0  0  0  0  0  0  0  0  0  0  0
   37.7784    1.5359   13.3309 C   0  0  0  0  0  0  0  0  0  0  0  0
   36.6197    1.3216   12.3722 C   0  0  0  0  0  0  0  0  0  0  0  0
   35.3862    1.0177   13.0157 O   0  0  0  0  0  0  0  0  0  0  0  0
   35.4885    0.2128   13.5472 H   0  0  0  0  0  0  0  0  0  0  0  0
   35.2307   -4.9013   12.1171 O   0  0  0  0  0  0  0  0  0  0  0  0
   35.6748   -3.7657   11.9851 C   0  0  0  0  0  0  0  0  0  0  0  0
   34.9698   -2.7942   11.3267 N   0  0  0  0  0  0  0  0  0  0  0  0
   35.3551   -1.4919   11.1303 C   0  0  0  0  0  0  0  0  0  0  0  0
   34.6067   -0.7322   10.5186 O   0  0  0  0  0  0  0  0  0  0  0  0
   36.5821   -1.1378   11.6757 N   0  0  0  0  0  0  0  0  0  0  0  0
   37.3729   -2.0722   12.3291 C   0  0  0  0  0  0  0  0  0  0  0  0
   36.9914   -3.3395   12.5125 C   0  0  0  0  0  0  0  0  0  0  0  0
   37.9797   -4.4817   13.3256 Cl  0  0  0  0  0  0  0  0  0  0  0  0
   34.0965   -3.0571   10.9559 H   0  0  0  0  0  0  0  0  0  0  0  0
   40.2500    0.8663   13.1797 C   0  0  0  0  0  0  0  0  0  0  0  0
   40.0921   -0.2781   14.0120 O   0  0  0  0  0  0  0  0  0  0  0  0
   39.4197   -0.0965   14.6871 H   0  0  0  0  0  0  0  0  0  0  0  0
   37.8467    2.8726   13.8023 O   0  0  0  0  0  0  0  0  0  0  0  0
   36.8010    3.9567   13.2686 P   0  0  0  0  0  0  0  0  0  0  0  0
   35.6451    4.2537   14.1546 O   0  0  0  0  0  0  0  0  0  0  0  0
   36.3938    3.4738   11.8089 O   0  0  0  0  0  0  0  0  0  0  0  0
   37.6991    5.2448   12.9578 O   0  0  0  0  0  0  0  0  0  0  0  0
   35.8364    2.6825   11.8739 H   0  0  0  0  0  0  0  0  0  0  0  0
   38.0099    5.6311   13.7916 H   0  0  0  0  0  0  0  0  0  0  0  0
  8  9  2  0
  9 10  1  0
 10 11  1  0
 11 12  2  0
 11 13  1  0
  1 13  1  0
  1  2  1  0
  2  3  1  0
  3 18  1  0
 18 19  1  0
  3  4  1  0
  4 21  1  0
 21 22  1  0
 22 23  2  0
 22 24  1  0
 22 25  1  0
  4  5  1  0
  5  6  1  0
 13 14  1  0
 14 15  2  0
 15 16  1  0
 15  9  1  0
  5  1  1  0
 10 17  1  0
 19 20  1  0
 24 26  1  0
 25 27  1  0
  6  7  1  0
M  END
> <minimizedAffinity>
-6.73415

> <CNNscore>
0.9655027986

> <CNNaffinity>
4.9000859261

> <CNN_VS>
4.7310466766

> <CNNaffinity_variance>
0.0985834971

$$$$



 27 28  0  0  0  0  0  0  0  0999 V2000
   37.5150   -1.9802   11.7192 C   0  0  0  0  0  0  0  0  0  0  0  0
   38.8459   -2.2499   12.1957 O   0  0  0  0  0  0  0  0  0  0  0  0
   39.2179   -1.1715   13.0775 C   0  0  0  0  0  0  0  0  0  0  0  0
   37.9221   -0.5799   13.6223 C   0  0  0  0  0  0  0  0  0  0  0  0
   37.0122   -0.6970   12.4117 C   0  0  0  0  0  0  0  0  0  0  0  0
   35.6247   -0.7184   12.7317 O   0  0  0  0  0  0  0  0  0  0  0  0
   35.4399   -1.4678   13.3192 H   0  0  0  0  0  0  0  0  0  0  0  0
   34.5434   -6.5746   12.1412 O   0  0  0  0  0  0  0  0  0  0  0  0
   35.2230   -5.5564   12.0664 C   0  0  0  0  0  0  0  0  0  0  0  0
   34.7943   -4.4604   11.3669 N   0  0  0  0  0  0  0  0  0  0  0  0
   35.4566   -3.2668   11.2257 C   0  0  0  0  0  0  0  0  0  0  0  0
   34.9376   -2.3689   10.5654 O   0  0  0  0  0  0  0  0  0  0  0  0
   36.6785   -3.1749   11.8791 N   0  0  0  0  0  0  0  0  0  0  0  0
   37.1989   -4.2525   12.5816 C   0  0  0  0  0  0  0  0  0  0  0  0
   36.5486   -5.4125   12.7107 C   0  0  0  0  0  0  0  0  0  0  0  0
   37.2046   -6.7342   13.5856 Cl  0  0  0  0  0  0  0  0  0  0  0  0
   33.9209   -4.5364   10.9189 H   0  0  0  0  0  0  0  0  0  0  0  0
   40.1827   -1.6686   14.1557 C   0  0  0  0  0  0  0  0  0  0  0  0
   40.5960   -0.6373   15.0462 O   0  0  0  0  0  0  0  0  0  0  0  0
   41.0692    0.0483   14.5494 H   0  0  0  0  0  0  0  0  0  0  0  0
   38.1264    0.7687   14.0137 O   0  0  0  0  0  0  0  0  0  0  0  0
   38.0024    1.9368   12.9303 P   0  0  0  0  0  0  0  0  0  0  0  0
   36.7414    1.9798   12.1446 O   0  0  0  0  0  0  0  0  0  0  0  0
   39.3182    1.8363   12.0425 O   0  0  0  0  0  0  0  0  0  0  0  0
   38.2641    3.2753   13.7684 O   0  0  0  0  0  0  0  0  0  0  0  0
   39.2704    1.0462   11.4819 H   0  0  0  0  0  0  0  0  0  0  0  0
   37.5111    3.4406   14.3571 H   0  0  0  0  0  0  0  0  0  0  0  0
  8  9  2  0
  9 10  1  0
 10 11  1  0
 11 12  2  0
 11 13  1  0
  1 13  1  0
  1  2  1  0
  2  3  1  0
  3 18  1  0
 18 19  1  0
  3  4  1  0
  4 21  1  0
 21 22  1  0
 22 23  2  0
 22 24  1  0
 22 25  1  0
  4  5  1  0
  5  6  1  0
 13 14  1  0
 14 15  2  0
 15 16  1  0
 15  9  1  0
  5  1  1  0
 10 17  1  0
 19 20  1  0
 24 26  1  0
 25 27  1  0
  6  7  1  0
M  END
> <minimizedAffinity>
-5.81054

> <CNNscore>
0.8262378573

> <CNNaffinity>
5.0126647949

> <CNN_VS>
4.1416535378

> <CNNaffinity_variance>
0.0842836723

$$$$



 27 28  0  0  0  0  0  0  0  0999 V2000
   40.0487    0.0543   13.5925 C   0  0  0  0  0  0  0  0  0  0  0  0
   39.0818   -1.0091   13.6654 O   0  0  0  0  0  0  0  0  0  0  0  0
   37.8641   -0.5306   13.0595 C   0  0  0  0  0  0  0  0  0  0  0  0
   38.2609    0.5692   12.0802 C   0  0  0  0  0  0  0  0  0  0  0  0
   39.4073    1.2295   12.8266 C   0  0  0  0  0  0  0  0  0  0  0  0
   40.3142    1.9349   11.9853 O   0  0  0  0  0  0  0  0  0  0  0  0
   40.6928    1.3240   11.3339 H   0  0  0  0  0  0  0  0  0  0  0  0
   44.7635   -2.0678   11.7532 O   0  0  0  0  0  0  0  0  0  0  0  0
   43.6967   -1.6084   12.1469 C   0  0  0  0  0  0  0  0  0  0  0  0
   43.6475   -0.4930   12.9392 N   0  0  0  0  0  0  0  0  0  0  0  0
   42.5193    0.1183   13.4259 C   0  0  0  0  0  0  0  0  0  0  0  0
   42.6372    1.1220   14.1259 O   0  0  0  0  0  0  0  0  0  0  0  0
   41.3127   -0.4596   13.0535 N   0  0  0  0  0  0  0  0  0  0  0  0
   41.2776   -1.6109   12.2798 C   0  0  0  0  0  0  0  0  0  0  0  0
   42.3815   -2.2017   11.8133 C   0  0  0  0  0  0  0  0  0  0  0  0
   42.3206   -3.6232   10.8550 Cl  0  0  0  0  0  0  0  0  0  0  0  0
   44.5103   -0.0876   13.1851 H   0  0  0  0  0  0  0  0  0  0  0  0
   37.0905   -1.6874   12.4239 C   0  0  0  0  0  0  0  0  0  0  0  0
   37.7772   -2.2731   11.3228 O   0  0  0  0  0  0  0  0  0  0  0  0
   37.8982   -1.6085   10.6266 H   0  0  0  0  0  0  0  0  0  0  0  0
   37.1724    1.4556   11.8725 O   0  0  0  0  0  0  0  0  0  0  0  0
   36.7866    2.5171   13.0030 P   0  0  0  0  0  0  0  0  0  0  0  0
   37.8305    2.8101   14.0198 O   0  0  0  0  0  0  0  0  0  0  0  0
   35.4092    2.0079   13.6138 O   0  0  0  0  0  0  0  0  0  0  0  0
   36.3310    3.8133   12.1816 O   0  0  0  0  0  0  0  0  0  0  0  0
   35.5653    1.2098   14.1425 H   0  0  0  0  0  0  0  0  0  0  0  0
   37.1049    4.2156   11.7572 H   0  0  0  0  0  0  0  0  0  0  0  0
  8  9  2  0
  9 10  1  0
 10 11  1  0
 11 12  2  0
 11 13  1  0
  1 13  1  0
  1  2  1  0
  2  3  1  0
  3 18  1  0
 18 19  1  0
  3  4  1  0
  4 21  1  0
 21 22  1  0
 22 23  2  0
 22 24  1  0
 22 25  1  0
  4  5  1  0
  5  6  1  0
 13 14  1  0
 14 15  2  0
 15 16  1  0
 15  9  1  0
  5  1  1  0
 10 17  1  0
 19 20  1  0
 24 26  1  0
 25 27  1  0
  6  7  1  0
M  END
> <minimizedAffinity>
-5.74512

> <CNNscore>
0.6262531877

> <CNNaffinity>
4.6432251930

> <CNN_VS>
2.9078345299

> <CNNaffinity_variance>
0.2957497537

$$$$



 27 28  0  0  0  0  0  0  0  0999 V2000
   38.0242   -2.9527   12.7428 C   0  0  0  0  0  0  0  0  0  0  0  0
   38.9850   -3.8057   13.3912 O   0  0  0  0  0  0  0  0  0  0  0  0
   39.5537   -3.0630   14.4884 C   0  0  0  0  0  0  0  0  0  0  0  0
   38.5243   -2.0121   14.8908 C   0  0  0  0  0  0  0  0  0  0  0  0
   37.9447   -1.6339   13.5387 C   0  0  0  0  0  0  0  0  0  0  0  0
   36.6356   -1.0775   13.6065 O   0  0  0  0  0  0  0  0  0  0  0  0
   36.0345   -1.7150   14.0226 H   0  0  0  0  0  0  0  0  0  0  0  0
   33.4390   -5.8567   11.9311 O   0  0  0  0  0  0  0  0  0  0  0  0
   34.4670   -5.2200   12.1356 C   0  0  0  0  0  0  0  0  0  0  0  0
   34.7837   -4.1151   11.3917 N   0  0  0  0  0  0  0  0  0  0  0  0
   35.8916   -3.3185   11.5369 C   0  0  0  0  0  0  0  0  0  0  0  0
   36.0360   -2.3525   10.7904 O   0  0  0  0  0  0  0  0  0  0  0  0
   36.7617   -3.6769   12.5582 N   0  0  0  0  0  0  0  0  0  0  0  0
   36.5298   -4.8026   13.3358 C   0  0  0  0  0  0  0  0  0  0  0  0
   35.4500   -5.5749   13.1848 C   0  0  0  0  0  0  0  0  0  0  0  0
   35.1765   -6.9616   14.1569 Cl  0  0  0  0  0  0  0  0  0  0  0  0
   34.1514   -3.8665   10.6793 H   0  0  0  0  0  0  0  0  0  0  0  0
   39.9620   -4.0072   15.6209 C   0  0  0  0  0  0  0  0  0  0  0  0
   38.9765   -4.9966   15.8984 O   0  0  0  0  0  0  0  0  0  0  0  0
   38.1561   -4.5648   16.1835 H   0  0  0  0  0  0  0  0  0  0  0  0
   39.1653   -0.9176   15.5269 O   0  0  0  0  0  0  0  0  0  0  0  0
   39.6982    0.3081   14.6510 P   0  0  0  0  0  0  0  0  0  0  0  0
   38.6779    1.0593   13.8737 O   0  0  0  0  0  0  0  0  0  0  0  0
   40.8830   -0.2815   13.7688 O   0  0  0  0  0  0  0  0  0  0  0  0
   40.4854    1.2247   15.7011 O   0  0  0  0  0  0  0  0  0  0  0  0
   40.5177   -0.8642   13.0848 H   0  0  0  0  0  0  0  0  0  0  0  0
   39.8511    1.6442   16.3033 H   0  0  0  0  0  0  0  0  0  0  0  0
  8  9  2  0
  9 10  1  0
 10 11  1  0
 11 12  2  0
 11 13  1  0
  1 13  1  0
  1  2  1  0
  2  3  1  0
  3 18  1  0
 18 19  1  0
  3  4  1  0
  4 21  1  0
 21 22  1  0
 22 23  2  0
 22 24  1  0
 22 25  1  0
  4  5  1  0
  5  6  1  0
 13 14  1  0
 14 15  2  0
 15 16  1  0
 15  9  1  0
  5  1  1  0
 10 17  1  0
 19 20  1  0
 24 26  1  0
 25 27  1  0
  6  7  1  0
M  END
> <minimizedAffinity>
-5.15009

> <CNNscore>
0.5885229707

> <CNNaffinity>
4.6415386200

> <CNN_VS>
2.7316520214

> <CNNaffinity_variance>
0.2384671569

$$$$



 27 28  0  0  0  0  0  0  0  0999 V2000
   37.2348   -2.0168   11.3959 C   0  0  0  0  0  0  0  0  0  0  0  0
   38.6408   -1.7443   11.5374 O   0  0  0  0  0  0  0  0  0  0  0  0
   38.7922   -0.3200   11.7032 C   0  0  0  0  0  0  0  0  0  0  0  0
   37.4783    0.1997   12.2772 C   0  0  0  0  0  0  0  0  0  0  0  0
   36.4728   -0.6860   11.5617 C   0  0  0  0  0  0  0  0  0  0  0  0
   35.2282   -0.8133   12.2418 O   0  0  0  0  0  0  0  0  0  0  0  0
   35.3790   -1.1841   13.1254 H   0  0  0  0  0  0  0  0  0  0  0  0
   35.9750   -6.2360   14.6711 O   0  0  0  0  0  0  0  0  0  0  0  0
   36.2735   -5.2845   13.9573 C   0  0  0  0  0  0  0  0  0  0  0  0
   35.5155   -4.9404   12.8704 N   0  0  0  0  0  0  0  0  0  0  0  0
   35.7402   -3.8937   12.0119 C   0  0  0  0  0  0  0  0  0  0  0  0
   34.9631   -3.7088   11.0773 O   0  0  0  0  0  0  0  0  0  0  0  0
   36.8461   -3.1048   12.3001 N   0  0  0  0  0  0  0  0  0  0  0  0
   37.6842   -3.4061   13.3642 C   0  0  0  0  0  0  0  0  0  0  0  0
   37.4598   -4.4299   14.1930 C   0  0  0  0  0  0  0  0  0  0  0  0
   38.5041   -4.7870   15.5062 Cl  0  0  0  0  0  0  0  0  0  0  0  0
   34.7281   -5.5018   12.6856 H   0  0  0  0  0  0  0  0  0  0  0  0
   40.0192   -0.0073   12.5618 C   0  0  0  0  0  0  0  0  0  0  0  0
   40.4585    1.3405   12.4286 O   0  0  0  0  0  0  0  0  0  0  0  0
   40.7176    1.5067   11.5087 H   0  0  0  0  0  0  0  0  0  0  0  0
   37.3122    1.5716   11.9550 O   0  0  0  0  0  0  0  0  0  0  0  0
   36.8003    2.5928   13.0723 P   0  0  0  0  0  0  0  0  0  0  0  0
   37.7709    2.9456   14.1413 O   0  0  0  0  0  0  0  0  0  0  0  0
   35.4327    1.9851   13.6109 O   0  0  0  0  0  0  0  0  0  0  0  0
   36.2978    3.8635   12.2384 O   0  0  0  0  0  0  0  0  0  0  0  0
   35.6170    1.1941   14.1412 H   0  0  0  0  0  0  0  0  0  0  0  0
   37.0621    4.3218   11.8554 H   0  0  0  0  0  0  0  0  0  0  0  0
  8  9  2  0
  9 10  1  0
 10 11  1  0
 11 12  2  0
 11 13  1  0
  1 13  1  0
  1  2  1  0
  2  3  1  0
  3 18  1  0
 18 19  1  0
  3  4  1  0
  4 21  1  0
 21 22  1  0
 22 23  2  0
 22 24  1  0
 22 25  1  0
  4  5  1  0
  5  6  1  0
 13 14  1  0
 14 15  2  0
 15 16  1  0
 15  9  1  0
  5  1  1  0
 10 17  1  0
 19 20  1  0
 24 26  1  0
 25 27  1  0
  6  7  1  0
M  END
> <minimizedAffinity>
-7.35461

> <CNNscore>
0.5829422474

> <CNNaffinity>
4.7185935974

> <CNN_VS>
2.7506675720

> <CNNaffinity_variance>
0.2874450684

$$$$



 27 28  0  0  0  0  0  0  0  0999 V2000
   36.2417   -3.6872   13.3298 C   0  0  0  0  0  0  0  0  0  0  0  0
   35.6529   -2.4238   12.9720 O   0  0  0  0  0  0  0  0  0  0  0  0
   36.6795   -1.6286   12.3452 C   0  0  0  0  0  0  0  0  0  0  0  0
   37.7004   -2.6026   11.7664 C   0  0  0  0  0  0  0  0  0  0  0  0
   37.6982   -3.6946   12.8222 C   0  0  0  0  0  0  0  0  0  0  0  0
   38.1372   -4.9619   12.3435 O   0  0  0  0  0  0  0  0  0  0  0  0
   37.5647   -5.2483   11.6148 H   0  0  0  0  0  0  0  0  0  0  0  0
   33.2606   -7.9374   11.5507 O   0  0  0  0  0  0  0  0  0  0  0  0
   33.9249   -6.9969   11.9729 C   0  0  0  0  0  0  0  0  0  0  0  0
   34.1693   -5.8915   11.2029 N   0  0  0  0  0  0  0  0  0  0  0  0
   34.8817   -4.7775   11.5698 C   0  0  0  0  0  0  0  0  0  0  0  0
   35.0123   -3.8584   10.7639 O   0  0  0  0  0  0  0  0  0  0  0  0
   35.3859   -4.7840   12.8638 N   0  0  0  0  0  0  0  0  0  0  0  0
   35.2106   -5.8802   13.6963 C   0  0  0  0  0  0  0  0  0  0  0  0
   34.5185   -6.9626   13.3292 C   0  0  0  0  0  0  0  0  0  0  0  0
   34.3082   -8.3084   14.3719 Cl  0  0  0  0  0  0  0  0  0  0  0  0
   33.7954   -5.8964   10.2922 H   0  0  0  0  0  0  0  0  0  0  0  0
   36.0672   -0.6764   11.3162 C   0  0  0  0  0  0  0  0  0  0  0  0
   37.0368    0.1531   10.6846 O   0  0  0  0  0  0  0  0  0  0  0  0
   37.4691    0.7101   11.3508 H   0  0  0  0  0  0  0  0  0  0  0  0
   38.9658   -1.9716   11.6473 O   0  0  0  0  0  0  0  0  0  0  0  0
   39.5922   -1.2063   12.9024 P   0  0  0  0  0  0  0  0  0  0  0  0
   40.8898   -1.7219   13.4120 O   0  0  0  0  0  0  0  0  0  0  0  0
   38.4367   -1.1614   13.9945 O   0  0  0  0  0  0  0  0  0  0  0  0
   39.6673    0.3213   12.4300 O   0  0  0  0  0  0  0  0  0  0  0  0
   38.3005   -2.0504   14.3578 H   0  0  0  0  0  0  0  0  0  0  0  0
   40.3528    0.4162   11.7502 H   0  0  0  0  0  0  0  0  0  0  0  0
  8  9  2  0
  9 10  1  0
 10 11  1  0
 11 12  2  0
 11 13  1  0
  1 13  1  0
  1  2  1  0
  2  3  1  0
  3 18  1  0
 18 19  1  0
  3  4  1  0
  4 21  1  0
 21 22  1  0
 22 23  2  0
 22 24  1  0
 22 25  1  0
  4  5  1  0
  5  6  1  0
 13 14  1  0
 14 15  2  0
 15 16  1  0
 15  9  1  0
  5  1  1  0
 10 17  1  0
 19 20  1  0
 24 26  1  0
 25 27  1  0
  6  7  1  0
M  END
> <minimizedAffinity>
-6.25961

> <CNNscore>
0.5253558755

> <CNNaffinity>
4.3097338676

> <CNN_VS>
2.2641439438

> <CNNaffinity_variance>
0.1409140676

$$$$



 27 28  0  0  0  0  0  0  0  0999 V2000
   38.3008   -0.1138   13.6245 C   0  0  0  0  0  0  0  0  0  0  0  0
   37.8217    1.2330   13.7908 O   0  0  0  0  0  0  0  0  0  0  0  0
   38.9170    2.1228   13.4951 C   0  0  0  0  0  0  0  0  0  0  0  0
   39.8610    1.3672   12.5657 C   0  0  0  0  0  0  0  0  0  0  0  0
   39.7573   -0.0424   13.1221 C   0  0  0  0  0  0  0  0  0  0  0  0
   40.0963   -1.0598   12.1851 O   0  0  0  0  0  0  0  0  0  0  0  0
   39.5104   -0.9978   11.4145 H   0  0  0  0  0  0  0  0  0  0  0  0
   35.0023   -3.0945   10.4071 O   0  0  0  0  0  0  0  0  0  0  0  0
   35.7374   -2.4468   11.1448 C   0  0  0  0  0  0  0  0  0  0  0  0
   36.0406   -1.1378   10.8822 N   0  0  0  0  0  0  0  0  0  0  0  0
   36.8343   -0.3121   11.6380 C   0  0  0  0  0  0  0  0  0  0  0  0
   37.0107    0.8482   11.2718 O   0  0  0  0  0  0  0  0  0  0  0  0
   37.3632   -0.8755   12.7919 N   0  0  0  0  0  0  0  0  0  0  0  0
   37.1307   -2.2055   13.1121 C   0  0  0  0  0  0  0  0  0  0  0  0
   36.3594   -3.0034   12.3681 C   0  0  0  0  0  0  0  0  0  0  0  0
   36.0793   -4.6449   12.7798 Cl  0  0  0  0  0  0  0  0  0  0  0  0
   35.6488   -0.7488   10.0670 H   0  0  0  0  0  0  0  0  0  0  0  0
   38.3965    3.4427   12.9228 C   0  0  0  0  0  0  0  0  0  0  0  0
   39.2618    3.9980   11.9379 O   0  0  0  0  0  0  0  0  0  0  0  0
   40.1237    4.1931   12.3378 H   0  0  0  0  0  0  0  0  0  0  0  0
   41.1751    1.8921   12.6708 O   0  0  0  0  0  0  0  0  0  0  0  0
   42.1199    1.9300   11.3826 P   0  0  0  0  0  0  0  0  0  0  0  0
   43.5759    1.7535   11.6240 O   0  0  0  0  0  0  0  0  0  0  0  0
   41.7460    3.2742   10.6190 O   0  0  0  0  0  0  0  0  0  0  0  0
   41.5054    0.8123   10.4153 O   0  0  0  0  0  0  0  0  0  0  0  0
   42.0752    4.0347   11.1232 H   0  0  0  0  0  0  0  0  0  0  0  0
   41.6765   -0.0670   10.7876 H   0  0  0  0  0  0  0  0  0  0  0  0
  8  9  2  0
  9 10  1  0
 10 11  1  0
 11 12  2  0
 11 13  1  0
  1 13  1  0
  1  2  1  0
  2  3  1  0
  3 18  1  0
 18 19  1  0
  3  4  1  0
  4 21  1  0
 21 22  1  0
 22 23  2  0
 22 24  1  0
 22 25  1  0
  4  5  1  0
  5  6  1  0
 13 14  1  0
 14 15  2  0
 15 16  1  0
 15  9  1  0
  5  1  1  0
 10 17  1  0
 19 20  1  0
 24 26  1  0
 25 27  1  0
  6  7  1  0
M  END
> <minimizedAffinity>
-5.82144

> <CNNscore>
0.5251086950

> <CNNaffinity>
4.1002998352

> <CNN_VS>
2.1531031132

> <CNNaffinity_variance>
0.1204600334

$$$$



 27 28  0  0  0  0  0  0  0  0999 V2000
   37.5283   -1.6528   14.1457 C   0  0  0  0  0  0  0  0  0  0  0  0
   36.3841   -2.0493   13.3681 O   0  0  0  0  0  0  0  0  0  0  0  0
   36.0968   -0.9811   12.4432 C   0  0  0  0  0  0  0  0  0  0  0  0
   37.4021   -0.2231   12.2251 C   0  0  0  0  0  0  0  0  0  0  0  0
   38.0182   -0.2912   13.6119 C   0  0  0  0  0  0  0  0  0  0  0  0
   39.4343   -0.1414   13.6229 O   0  0  0  0  0  0  0  0  0  0  0  0
   39.8373   -0.8379   13.0813 H   0  0  0  0  0  0  0  0  0  0  0  0
   41.0354   -5.8707   14.3084 O   0  0  0  0  0  0  0  0  0  0  0  0
   40.2449   -4.9350   14.2476 C   0  0  0  0  0  0  0  0  0  0  0  0
   40.2688   -3.9180   15.1638 N   0  0  0  0  0  0  0  0  0  0  0  0
   39.4495   -2.8174   15.1892 C   0  0  0  0  0  0  0  0  0  0  0  0
   39.5964   -1.9825   16.0795 O   0  0  0  0  0  0  0  0  0  0  0  0
   38.5166   -2.7370   14.1636 N   0  0  0  0  0  0  0  0  0  0  0  0
   38.4057   -3.7433   13.2146 C   0  0  0  0  0  0  0  0  0  0  0  0
   39.2055   -4.8135   13.1997 C   0  0  0  0  0  0  0  0  0  0  0  0
   39.0573   -6.0473   12.0172 Cl  0  0  0  0  0  0  0  0  0  0  0  0
   40.9433   -3.9829   15.8780 H   0  0  0  0  0  0  0  0  0  0  0  0
   35.4713   -1.5349   11.1616 C   0  0  0  0  0  0  0  0  0  0  0  0
   36.2977   -2.4961   10.5133 O   0  0  0  0  0  0  0  0  0  0  0  0
   37.1343   -2.0800   10.2528 H   0  0  0  0  0  0  0  0  0  0  0  0
   37.1322    1.1100   11.8209 O   0  0  0  0  0  0  0  0  0  0  0  0
   36.8499    2.2318   12.9233 P   0  0  0  0  0  0  0  0  0  0  0  0
   37.9193    2.4528   13.9318 O   0  0  0  0  0  0  0  0  0  0  0  0
   35.4328    1.8689   13.5478 O   0  0  0  0  0  0  0  0  0  0  0  0
   36.5144    3.5430   12.0685 O   0  0  0  0  0  0  0  0  0  0  0  0
   35.5156    1.0737   14.0971 H   0  0  0  0  0  0  0  0  0  0  0  0
   37.3211    3.8605   11.6335 H   0  0  0  0  0  0  0  0  0  0  0  0
  8  9  2  0
  9 10  1  0
 10 11  1  0
 11 12  2  0
 11 13  1  0
  1 13  1  0
  1  2  1  0
  2  3  1  0
  3 18  1  0
 18 19  1  0
  3  4  1  0
  4 21  1  0
 21 22  1  0
 22 23  2  0
 22 24  1  0
 22 25  1  0
  4  5  1  0
  5  6  1  0
 13 14  1  0
 14 15  2  0
 15 16  1  0
 15  9  1  0
  5  1  1  0
 10 17  1  0
 19 20  1  0
 24 26  1  0
 25 27  1  0
  6  7  1  0
M  END
> <minimizedAffinity>
-6.13539

> <CNNscore>
0.5184035301

> <CNNaffinity>
5.0434107780

> <CNN_VS>
2.6145219803

> <CNNaffinity_variance>
0.8181030750

$$$$



 27 28  0  0  0  0  0  0  0  0999 V2000
   37.4259   -1.5518   14.0756 C   0  0  0  0  0  0  0  0  0  0  0  0
   36.3788   -1.9303   13.1637 O   0  0  0  0  0  0  0  0  0  0  0  0
   36.1720   -0.8272   12.2585 C   0  0  0  0  0  0  0  0  0  0  0  0
   37.4787   -0.0420   12.2138 C   0  0  0  0  0  0  0  0  0  0  0  0
   37.9443   -0.1615   13.6547 C   0  0  0  0  0  0  0  0  0  0  0  0
   39.3480    0.0078   13.8242 O   0  0  0  0  0  0  0  0  0  0  0  0
   39.8196   -0.6587   13.3005 H   0  0  0  0  0  0  0  0  0  0  0  0
   41.3552   -5.3673   14.4203 O   0  0  0  0  0  0  0  0  0  0  0  0
   40.4729   -4.5170   14.3691 C   0  0  0  0  0  0  0  0  0  0  0  0
   39.9407   -4.1097   13.1753 N   0  0  0  0  0  0  0  0  0  0  0  0
   38.9453   -3.1825   12.9947 C   0  0  0  0  0  0  0  0  0  0  0  0
   38.5684   -2.9237   11.8535 O   0  0  0  0  0  0  0  0  0  0  0  0
   38.4268   -2.6216   14.1545 N   0  0  0  0  0  0  0  0  0  0  0  0
   38.9343   -2.9562   15.4019 C   0  0  0  0  0  0  0  0  0  0  0  0
   39.9065   -3.8576   15.5681 C   0  0  0  0  0  0  0  0  0  0  0  0
   40.5206   -4.2624   17.1178 Cl  0  0  0  0  0  0  0  0  0  0  0  0
   40.3101   -4.5249   12.3627 H   0  0  0  0  0  0  0  0  0  0  0  0
   35.6974   -1.3337   10.8951 C   0  0  0  0  0  0  0  0  0  0  0  0
   35.6559   -2.7547   10.8169 O   0  0  0  0  0  0  0  0  0  0  0  0
   36.5483   -3.1120   10.9469 H   0  0  0  0  0  0  0  0  0  0  0  0
   37.2285    1.3034   11.8387 O   0  0  0  0  0  0  0  0  0  0  0  0
   36.8338    2.3778   12.9539 P   0  0  0  0  0  0  0  0  0  0  0  0
   37.8412    2.6283   14.0177 O   0  0  0  0  0  0  0  0  0  0  0  0
   35.4112    1.9222   13.5002 O   0  0  0  0  0  0  0  0  0  0  0  0
   36.4669    3.6919   12.1167 O   0  0  0  0  0  0  0  0  0  0  0  0
   35.5119    1.1179   14.0330 H   0  0  0  0  0  0  0  0  0  0  0  0
   37.2743    4.0642   11.7289 H   0  0  0  0  0  0  0  0  0  0  0  0
  8  9  2  0
  9 10  1  0
 10 11  1  0
 11 12  2  0
 11 13  1  0
  1 13  1  0
  1  2  1  0
  2  3  1  0
  3 18  1  0
 18 19  1  0
  3  4  1  0
  4 21  1  0
 21 22  1  0
 22 23  2  0
 22 24  1  0
 22 25  1  0
  4  5  1  0
  5  6  1  0
 13 14  1  0
 14 15  2  0
 15 16  1  0
 15  9  1  0
  5  1  1  0
 10 17  1  0
 19 20  1  0
 24 26  1  0
 25 27  1  0
  6  7  1  0
M  END
> <minimizedAffinity>
-6.23454

> <CNNscore>
0.4959463477

> <CNNaffinity>
4.9819521904

> <CNN_VS>
2.4707810879

> <CNNaffinity_variance>
0.9819142818

$$$$
