


 27 29  0  0  0  0  0  0  0  0999 V2000
  -36.7247   -3.0135    8.7439 C   0  0  0  0  0  0  0  0  0  0  0  0
  -37.0292   -4.0016    7.6651 C   0  0  0  0  0  0  0  0  0  0  0  0
  -38.1649   -4.0576    6.8707 C   0  0  0  0  0  0  0  0  0  0  0  0
  -38.0455   -5.1259    6.0213 N   0  0  0  0  0  0  0  0  0  0  0  0
  -36.8537   -5.7687    6.2420 C   0  0  0  0  0  0  0  0  0  0  0  0
  -36.2721   -6.8834    5.6631 C   0  0  0  0  0  0  0  0  0  0  0  0
  -36.8359   -7.5945    4.6141 N   0  0  0  0  0  0  0  0  0  0  0  0
  -35.0830   -7.2863    6.1371 N   0  0  0  0  0  0  0  0  0  0  0  0
  -34.5292   -6.5823    7.1451 C   0  0  0  0  0  0  0  0  0  0  0  0
  -35.0113   -5.4906    7.7580 N   0  0  0  0  0  0  0  0  0  0  0  0
  -36.2094   -5.0977    7.2721 C   0  0  0  0  0  0  0  0  0  0  0  0
  -38.7159   -5.3929    5.3516 H   0  0  0  0  0  0  0  0  0  0  0  0
  -37.7074   -7.3213    4.2465 H   0  0  0  0  0  0  0  0  0  0  0  0
  -36.3645   -8.3723    4.2372 H   0  0  0  0  0  0  0  0  0  0  0  0
  -34.8917   -0.5024    6.9601 C   0  0  0  0  0  0  0  0  0  0  0  0
  -35.3572   -1.9607    7.0151 C   0  0  0  0  0  0  0  0  0  0  0  0
  -35.4820   -2.2990    8.4428 N   0  0  0  0  0  0  0  0  0  0  0  0
  -35.3371   -1.0481    9.2025 C   0  0  0  0  0  0  0  0  0  0  0  0
  -34.3481   -0.2464    8.3604 C   0  0  0  0  0  0  0  0  0  0  0  0
  -34.3733    1.1371    8.6741 O   0  0  0  0  0  0  0  0  0  0  0  0
  -35.2755    1.4767    8.5661 H   0  0  0  0  0  0  0  0  0  0  0  0
  -33.9798   -0.1384    5.7881 C   0  0  0  0  0  0  0  0  0  0  0  0
  -34.7345   -0.3035    4.1348 S   0  0  0  0  0  0  0  0  0  0  0  0
  -34.5741    1.4157    3.5410 C   0  0  0  0  0  0  0  0  0  0  0  0
  -33.5008    1.6484    2.4747 C   0  0  0  0  0  0  0  0  0  0  0  0
  -35.3551    2.6575    1.0433 C   0  0  0  0  0  0  0  0  0  0  0  0
  -33.8649    2.6147    1.3444 C   0  0  0  0  0  0  0  0  0  0  0  0
 26 27  1  0
 27 25  1  0
 25 24  1  0
 24 23  1  0
 23 22  1  0
 15 22  1  0
 15 16  1  0
 16 17  1  0
 17  1  1  0
  1  2  1  0
  2  3  2  0
  3  4  1  0
  4  5  1  0
  5  6  2  0
  6  7  1  0
  6  8  1  0
  8  9  2  0
  9 10  1  0
 10 11  2  0
 17 18  1  0
 18 19  1  0
 19 20  1  0
 19 15  1  0
 11  2  1  0
 11  5  1  0
  4 12  1  0
  7 13  1  0
  7 14  1  0
 20 21  1  0
M  END
> <minimizedAffinity>
-9.43457

> <CNNscore>
0.9969336987

> <CNNaffinity>
9.1357803345

> <CNN_VS>
9.1077671051

> <CNNaffinity_variance>
0.3954445422

$$$$



 27 29  0  0  0  0  0  0  0  0999 V2000
  -34.6747   -2.6150    9.3259 C   0  0  0  0  0  0  0  0  0  0  0  0
  -35.0503   -3.6869    8.3550 C   0  0  0  0  0  0  0  0  0  0  0  0
  -34.2293   -4.6755    7.8329 C   0  0  0  0  0  0  0  0  0  0  0  0
  -34.9691   -5.4398    6.9694 N   0  0  0  0  0  0  0  0  0  0  0  0
  -36.2582   -4.9731    6.9178 C   0  0  0  0  0  0  0  0  0  0  0  0
  -37.3729   -5.3838    6.2073 C   0  0  0  0  0  0  0  0  0  0  0  0
  -37.3923   -6.4869    5.3668 N   0  0  0  0  0  0  0  0  0  0  0  0
  -38.5053   -4.6795    6.3575 N   0  0  0  0  0  0  0  0  0  0  0  0
  -38.4879   -3.6182    7.1892 C   0  0  0  0  0  0  0  0  0  0  0  0
  -37.4642   -3.1546    7.9220 N   0  0  0  0  0  0  0  0  0  0  0  0
  -36.3306   -3.8718    7.7593 C   0  0  0  0  0  0  0  0  0  0  0  0
  -34.6263   -6.2101    6.4611 H   0  0  0  0  0  0  0  0  0  0  0  0
  -36.5760   -7.0219    5.2378 H   0  0  0  0  0  0  0  0  0  0  0  0
  -38.2224   -6.7349    4.8991 H   0  0  0  0  0  0  0  0  0  0  0  0
  -35.5758   -0.4681    6.6008 C   0  0  0  0  0  0  0  0  0  0  0  0
  -34.5313   -1.4118    7.2048 C   0  0  0  0  0  0  0  0  0  0  0  0
  -34.6789   -1.3073    8.6662 N   0  0  0  0  0  0  0  0  0  0  0  0
  -35.9017   -0.5331    8.9277 C   0  0  0  0  0  0  0  0  0  0  0  0
  -35.9431    0.4496    7.7604 C   0  0  0  0  0  0  0  0  0  0  0  0
  -37.2324    1.0133    7.5782 O   0  0  0  0  0  0  0  0  0  0  0  0
  -37.8816    0.3030    7.4564 H   0  0  0  0  0  0  0  0  0  0  0  0
  -35.1833    0.2047    5.2852 C   0  0  0  0  0  0  0  0  0  0  0  0
  -33.6291   -0.3934    4.5389 S   0  0  0  0  0  0  0  0  0  0  0  0
  -33.3228    0.9429    3.3328 C   0  0  0  0  0  0  0  0  0  0  0  0
  -34.5406    1.7960    2.9693 C   0  0  0  0  0  0  0  0  0  0  0  0
  -36.0379    2.6701    1.0987 C   0  0  0  0  0  0  0  0  0  0  0  0
  -34.6328    2.2625    1.5141 C   0  0  0  0  0  0  0  0  0  0  0  0
 26 27  1  0
 27 25  1  0
 25 24  1  0
 24 23  1  0
 23 22  1  0
 15 22  1  0
 15 16  1  0
 16 17  1  0
 17  1  1  0
  1  2  1  0
  2  3  2  0
  3  4  1  0
  4  5  1  0
  5  6  2  0
  6  7  1  0
  6  8  1  0
  8  9  2  0
  9 10  1  0
 10 11  2  0
 17 18  1  0
 18 19  1  0
 19 20  1  0
 19 15  1  0
 11  2  1  0
 11  5  1  0
  4 12  1  0
  7 13  1  0
  7 14  1  0
 20 21  1  0
M  END
> <minimizedAffinity>
-6.22220

> <CNNscore>
0.6223642826

> <CNNaffinity>
7.9256877899

> <CNN_VS>
4.9326648712

> <CNNaffinity_variance>
0.2314655334

$$$$



 27 29  0  0  0  0  0  0  0  0999 V2000
  -35.8477   -1.9665    7.0060 C   0  0  0  0  0  0  0  0  0  0  0  0
  -36.4954   -3.2929    6.7741 C   0  0  0  0  0  0  0  0  0  0  0  0
  -37.8499   -3.5548    6.6299 C   0  0  0  0  0  0  0  0  0  0  0  0
  -38.0121   -4.9032    6.4495 N   0  0  0  0  0  0  0  0  0  0  0  0
  -36.7912   -5.5287    6.4702 C   0  0  0  0  0  0  0  0  0  0  0  0
  -36.4189   -6.8557    6.3416 C   0  0  0  0  0  0  0  0  0  0  0  0
  -37.3102   -7.8900    6.0980 N   0  0  0  0  0  0  0  0  0  0  0  0
  -35.1139   -7.1521    6.4420 N   0  0  0  0  0  0  0  0  0  0  0  0
  -34.2479   -6.1418    6.6612 C   0  0  0  0  0  0  0  0  0  0  0  0
  -34.5142   -4.8332    6.7886 N   0  0  0  0  0  0  0  0  0  0  0  0
  -35.8316   -4.5498    6.6873 C   0  0  0  0  0  0  0  0  0  0  0  0
  -38.8770   -5.3564    6.3236 H   0  0  0  0  0  0  0  0  0  0  0  0
  -38.2734   -7.7016    6.0196 H   0  0  0  0  0  0  0  0  0  0  0  0
  -36.9798   -8.8126    6.0035 H   0  0  0  0  0  0  0  0  0  0  0  0
  -34.3183    0.6491    5.0911 C   0  0  0  0  0  0  0  0  0  0  0  0
  -35.6183   -0.0180    5.5506 C   0  0  0  0  0  0  0  0  0  0  0  0
  -35.3008   -1.4416    5.7526 N   0  0  0  0  0  0  0  0  0  0  0  0
  -33.8399   -1.5814    5.6573 C   0  0  0  0  0  0  0  0  0  0  0  0
  -33.4592   -0.5208    4.6276 C   0  0  0  0  0  0  0  0  0  0  0  0
  -32.0794   -0.1941    4.6780 O   0  0  0  0  0  0  0  0  0  0  0  0
  -31.8480    0.0946    5.5747 H   0  0  0  0  0  0  0  0  0  0  0  0
  -34.4774    1.8173    4.1176 C   0  0  0  0  0  0  0  0  0  0  0  0
  -33.4494    1.7215    2.6128 S   0  0  0  0  0  0  0  0  0  0  0  0
  -33.3158    3.4969    2.2076 C   0  0  0  0  0  0  0  0  0  0  0  0
  -34.3765    4.0358    1.2445 C   0  0  0  0  0  0  0  0  0  0  0  0
  -36.6161    2.9344    0.7187 C   0  0  0  0  0  0  0  0  0  0  0  0
  -35.1280    2.9948    0.4106 C   0  0  0  0  0  0  0  0  0  0  0  0
 26 27  1  0
 27 25  1  0
 25 24  1  0
 24 23  1  0
 23 22  1  0
 15 22  1  0
 15 16  1  0
 16 17  1  0
 17  1  1  0
  1  2  1  0
  2  3  2  0
  3  4  1  0
  4  5  1  0
  5  6  2  0
  6  7  1  0
  6  8  1  0
  8  9  2  0
  9 10  1  0
 10 11  2  0
 17 18  1  0
 18 19  1  0
 19 20  1  0
 19 15  1  0
 11  2  1  0
 11  5  1  0
  4 12  1  0
  7 13  1  0
  7 14  1  0
 20 21  1  0
M  END
> <minimizedAffinity>
-5.96564

> <CNNscore>
0.4462266564

> <CNNaffinity>
7.5878639221

> <CNN_VS>
3.3859071732

> <CNNaffinity_variance>
0.2648456395

$$$$



 27 29  0  0  0  0  0  0  0  0999 V2000
  -26.8317  -10.5315    2.9042 C   0  0  0  0  0  0  0  0  0  0  0  0
  -26.2048  -11.2591    4.0489 C   0  0  0  0  0  0  0  0  0  0  0  0
  -24.8690  -11.2497    4.4224 C   0  0  0  0  0  0  0  0  0  0  0  0
  -24.7206  -12.0622    5.5156 N   0  0  0  0  0  0  0  0  0  0  0  0
  -25.9325  -12.6011    5.8665 C   0  0  0  0  0  0  0  0  0  0  0  0
  -26.3116  -13.4715    6.8738 C   0  0  0  0  0  0  0  0  0  0  0  0
  -25.4440  -13.9682    7.8352 N   0  0  0  0  0  0  0  0  0  0  0  0
  -27.6007  -13.8403    6.9301 N   0  0  0  0  0  0  0  0  0  0  0  0
  -28.4452  -13.3415    6.0045 C   0  0  0  0  0  0  0  0  0  0  0  0
  -28.1717  -12.4904    5.0042 N   0  0  0  0  0  0  0  0  0  0  0  0
  -26.8704  -12.1294    4.9586 C   0  0  0  0  0  0  0  0  0  0  0  0
  -23.8700  -12.2340    5.9805 H   0  0  0  0  0  0  0  0  0  0  0  0
  -24.4930  -13.7144    7.8183 H   0  0  0  0  0  0  0  0  0  0  0  0
  -25.7793  -14.5746    8.5346 H   0  0  0  0  0  0  0  0  0  0  0  0
  -29.0156  -11.2078    0.1437 C   0  0  0  0  0  0  0  0  0  0  0  0
  -28.8895  -10.8112    1.6178 C   0  0  0  0  0  0  0  0  0  0  0  0
  -27.6555  -11.4462    2.1103 N   0  0  0  0  0  0  0  0  0  0  0  0
  -26.9488  -11.9925    0.9419 C   0  0  0  0  0  0  0  0  0  0  0  0
  -28.0876  -12.4094    0.0149 C   0  0  0  0  0  0  0  0  0  0  0  0
  -27.6542  -12.5799   -1.3254 O   0  0  0  0  0  0  0  0  0  0  0  0
  -27.2359  -11.7619   -1.6364 H   0  0  0  0  0  0  0  0  0  0  0  0
  -30.4420  -11.3776   -0.3802 C   0  0  0  0  0  0  0  0  0  0  0  0
  -31.2970   -9.8279   -0.8249 S   0  0  0  0  0  0  0  0  0  0  0  0
  -31.7711  -10.2111   -2.5461 C   0  0  0  0  0  0  0  0  0  0  0  0
  -31.4861  -11.6429   -3.0061 C   0  0  0  0  0  0  0  0  0  0  0  0
  -33.3344  -11.1440   -4.6913 C   0  0  0  0  0  0  0  0  0  0  0  0
  -32.3243  -12.1588   -4.1787 C   0  0  0  0  0  0  0  0  0  0  0  0
 26 27  1  0
 27 25  1  0
 25 24  1  0
 24 23  1  0
 23 22  1  0
 15 22  1  0
 15 16  1  0
 16 17  1  0
 17  1  1  0
  1  2  1  0
  2  3  2  0
  3  4  1  0
  4  5  1  0
  5  6  2  0
  6  7  1  0
  6  8  1  0
  8  9  2  0
  9 10  1  0
 10 11  2  0
 17 18  1  0
 18 19  1  0
 19 20  1  0
 19 15  1  0
 11  2  1  0
 11  5  1  0
  4 12  1  0
  7 13  1  0
  7 14  1  0
 20 21  1  0
M  END
> <minimizedAffinity>
-5.90698

> <CNNscore>
0.3553979695

> <CNNaffinity>
5.4815201759

> <CNN_VS>
1.9481211901

> <CNNaffinity_variance>
0.0957683921

$$$$



 27 29  0  0  0  0  0  0  0  0999 V2000
  -26.5804  -10.5400    3.3082 C   0  0  0  0  0  0  0  0  0  0  0  0
  -25.9920  -11.3290    4.4325 C   0  0  0  0  0  0  0  0  0  0  0  0
  -24.6683  -11.3463    4.8466 C   0  0  0  0  0  0  0  0  0  0  0  0
  -24.5568  -12.2147    5.9004 N   0  0  0  0  0  0  0  0  0  0  0  0
  -25.7811  -12.7641    6.1860 C   0  0  0  0  0  0  0  0  0  0  0  0
  -26.1944  -13.6830    7.1351 C   0  0  0  0  0  0  0  0  0  0  0  0
  -25.3588  -14.2333    8.0956 N   0  0  0  0  0  0  0  0  0  0  0  0
  -27.4862  -14.0470    7.1329 N   0  0  0  0  0  0  0  0  0  0  0  0
  -28.2998  -13.4966    6.2090 C   0  0  0  0  0  0  0  0  0  0  0  0
  -27.9923  -12.5968    5.2627 N   0  0  0  0  0  0  0  0  0  0  0  0
  -26.6887  -12.2411    5.2754 C   0  0  0  0  0  0  0  0  0  0  0  0
  -23.7216  -12.4149    6.3816 H   0  0  0  0  0  0  0  0  0  0  0  0
  -24.4067  -13.9843    8.1208 H   0  0  0  0  0  0  0  0  0  0  0  0
  -25.7179  -14.8730    8.7523 H   0  0  0  0  0  0  0  0  0  0  0  0
  -29.1266  -11.0225    0.8320 C   0  0  0  0  0  0  0  0  0  0  0  0
  -28.7800  -10.9345    2.3214 C   0  0  0  0  0  0  0  0  0  0  0  0
  -27.3909  -11.4062    2.4489 N   0  0  0  0  0  0  0  0  0  0  0  0
  -26.8482  -11.5400    1.0885 C   0  0  0  0  0  0  0  0  0  0  0  0
  -28.0666  -11.9630    0.2720 C   0  0  0  0  0  0  0  0  0  0  0  0
  -27.8801  -11.7537   -1.1189 O   0  0  0  0  0  0  0  0  0  0  0  0
  -27.6617  -10.8223   -1.2793 H   0  0  0  0  0  0  0  0  0  0  0  0
  -30.5836  -11.3517    0.5059 C   0  0  0  0  0  0  0  0  0  0  0  0
  -31.2700  -10.4873   -0.9474 S   0  0  0  0  0  0  0  0  0  0  0  0
  -30.3292   -8.9248   -0.8594 C   0  0  0  0  0  0  0  0  0  0  0  0
  -30.7967   -7.8185   -1.8084 C   0  0  0  0  0  0  0  0  0  0  0  0
  -32.3421   -8.2041   -3.8004 C   0  0  0  0  0  0  0  0  0  0  0  0
  -30.9103   -8.1961   -3.2877 C   0  0  0  0  0  0  0  0  0  0  0  0
 26 27  1  0
 27 25  1  0
 25 24  1  0
 24 23  1  0
 23 22  1  0
 15 22  1  0
 15 16  1  0
 16 17  1  0
 17  1  1  0
  1  2  1  0
  2  3  2  0
  3  4  1  0
  4  5  1  0
  5  6  2  0
  6  7  1  0
  6  8  1  0
  8  9  2  0
  9 10  1  0
 10 11  2  0
 17 18  1  0
 18 19  1  0
 19 20  1  0
 19 15  1  0
 11  2  1  0
 11  5  1  0
  4 12  1  0
  7 13  1  0
  7 14  1  0
 20 21  1  0
M  END
> <minimizedAffinity>
-6.47938

> <CNNscore>
0.3381129801

> <CNNaffinity>
5.3638501167

> <CNN_VS>
1.8135873079

> <CNNaffinity_variance>
0.2437535077

$$$$



 27 29  0  0  0  0  0  0  0  0999 V2000
  -30.4402    6.9540    7.0416 C   0  0  0  0  0  0  0  0  0  0  0  0
  -29.2662    7.8402    7.3042 C   0  0  0  0  0  0  0  0  0  0  0  0
  -29.0995    9.1577    6.9038 C   0  0  0  0  0  0  0  0  0  0  0  0
  -27.8749    9.5901    7.3404 N   0  0  0  0  0  0  0  0  0  0  0  0
  -27.2380    8.5832    8.0206 C   0  0  0  0  0  0  0  0  0  0  0  0
  -26.0028    8.5105    8.6411 C   0  0  0  0  0  0  0  0  0  0  0  0
  -25.1175    9.5744    8.7308 N   0  0  0  0  0  0  0  0  0  0  0  0
  -25.6526    7.3435    9.2036 N   0  0  0  0  0  0  0  0  0  0  0  0
  -26.5232    6.3162    9.1301 C   0  0  0  0  0  0  0  0  0  0  0  0
  -27.7383    6.2970    8.5618 N   0  0  0  0  0  0  0  0  0  0  0  0
  -28.0767    7.4775    7.9981 C   0  0  0  0  0  0  0  0  0  0  0  0
  -27.5065   10.4903    7.1885 H   0  0  0  0  0  0  0  0  0  0  0  0
  -25.3483   10.4423    8.3274 H   0  0  0  0  0  0  0  0  0  0  0  0
  -24.2582    9.4617    9.1979 H   0  0  0  0  0  0  0  0  0  0  0  0
  -33.4785    7.0318    5.1415 C   0  0  0  0  0  0  0  0  0  0  0  0
  -31.9525    6.9004    5.1239 C   0  0  0  0  0  0  0  0  0  0  0  0
  -31.4598    7.6746    6.2755 N   0  0  0  0  0  0  0  0  0  0  0  0
  -32.6304    8.0496    7.0830 C   0  0  0  0  0  0  0  0  0  0  0  0
  -33.7241    8.2410    6.0355 C   0  0  0  0  0  0  0  0  0  0  0  0
  -35.0240    8.2024    6.6029 O   0  0  0  0  0  0  0  0  0  0  0  0
  -35.1437    7.3665    7.0802 H   0  0  0  0  0  0  0  0  0  0  0  0
  -34.1623    7.0338    3.7740 C   0  0  0  0  0  0  0  0  0  0  0  0
  -33.2308    6.2118    2.4372 S   0  0  0  0  0  0  0  0  0  0  0  0
  -33.9963    4.5550    2.4910 C   0  0  0  0  0  0  0  0  0  0  0  0
  -33.0799    3.3915    2.1042 C   0  0  0  0  0  0  0  0  0  0  0  0
  -35.2199    2.0556    1.7288 C   0  0  0  0  0  0  0  0  0  0  0  0
  -33.7312    2.0077    2.0365 C   0  0  0  0  0  0  0  0  0  0  0  0
 26 27  1  0
 27 25  1  0
 25 24  1  0
 24 23  1  0
 23 22  1  0
 15 22  1  0
 15 16  1  0
 16 17  1  0
 17  1  1  0
  1  2  1  0
  2  3  2  0
  3  4  1  0
  4  5  1  0
  5  6  2  0
  6  7  1  0
  6  8  1  0
  8  9  2  0
  9 10  1  0
 10 11  2  0
 17 18  1  0
 18 19  1  0
 19 20  1  0
 19 15  1  0
 11  2  1  0
 11  5  1  0
  4 12  1  0
  7 13  1  0
  7 14  1  0
 20 21  1  0
M  END
> <minimizedAffinity>
-6.58025

> <CNNscore>
0.3282641172

> <CNNaffinity>
5.3260188103

> <CNN_VS>
1.7483408451

> <CNNaffinity_variance>
0.0942604318

$$$$



 27 29  0  0  0  0  0  0  0  0999 V2000
  -27.0177  -10.7988    3.2608 C   0  0  0  0  0  0  0  0  0  0  0  0
  -26.3081  -11.4534    4.4013 C   0  0  0  0  0  0  0  0  0  0  0  0
  -24.9826  -11.2877    4.7748 C   0  0  0  0  0  0  0  0  0  0  0  0
  -24.7380  -12.0831    5.8631 N   0  0  0  0  0  0  0  0  0  0  0  0
  -25.8771  -12.7640    6.2110 C   0  0  0  0  0  0  0  0  0  0  0  0
  -26.1494  -13.6790    7.2133 C   0  0  0  0  0  0  0  0  0  0  0  0
  -25.2283  -14.0748    8.1717 N   0  0  0  0  0  0  0  0  0  0  0  0
  -27.3856  -14.1986    7.2675 N   0  0  0  0  0  0  0  0  0  0  0  0
  -28.2840  -13.7983    6.3449 C   0  0  0  0  0  0  0  0  0  0  0  0
  -28.1142  -12.9150    5.3495 N   0  0  0  0  0  0  0  0  0  0  0  0
  -26.8650  -12.4018    5.3059 C   0  0  0  0  0  0  0  0  0  0  0  0
  -23.8726  -12.1554    6.3270 H   0  0  0  0  0  0  0  0  0  0  0  0
  -24.3141  -13.7098    8.1562 H   0  0  0  0  0  0  0  0  0  0  0  0
  -25.4886  -14.7208    8.8676 H   0  0  0  0  0  0  0  0  0  0  0  0
  -27.3816  -11.8403   -0.1495 C   0  0  0  0  0  0  0  0  0  0  0  0
  -28.0354  -11.1934    1.0754 C   0  0  0  0  0  0  0  0  0  0  0  0
  -27.3879  -11.7953    2.2531 N   0  0  0  0  0  0  0  0  0  0  0  0
  -26.2417  -12.5792    1.7687 C   0  0  0  0  0  0  0  0  0  0  0  0
  -26.7241  -13.0937    0.4149 C   0  0  0  0  0  0  0  0  0  0  0  0
  -25.6523  -13.5245   -0.4090 O   0  0  0  0  0  0  0  0  0  0  0  0
  -25.0180  -12.7992   -0.5199 H   0  0  0  0  0  0  0  0  0  0  0  0
  -28.2868  -12.0243   -1.3679 C   0  0  0  0  0  0  0  0  0  0  0  0
  -27.9480  -10.9006   -2.7654 S   0  0  0  0  0  0  0  0  0  0  0  0
  -26.1937  -11.3012   -3.0752 C   0  0  0  0  0  0  0  0  0  0  0  0
  -25.1856  -10.2379   -2.6321 C   0  0  0  0  0  0  0  0  0  0  0  0
  -22.9280   -9.7811   -3.7273 C   0  0  0  0  0  0  0  0  0  0  0  0
  -23.7069  -10.6225   -2.7281 C   0  0  0  0  0  0  0  0  0  0  0  0
 26 27  1  0
 27 25  1  0
 25 24  1  0
 24 23  1  0
 23 22  1  0
 15 22  1  0
 15 16  1  0
 16 17  1  0
 17  1  1  0
  1  2  1  0
  2  3  2  0
  3  4  1  0
  4  5  1  0
  5  6  2  0
  6  7  1  0
  6  8  1  0
  8  9  2  0
  9 10  1  0
 10 11  2  0
 17 18  1  0
 18 19  1  0
 19 20  1  0
 19 15  1  0
 11  2  1  0
 11  5  1  0
  4 12  1  0
  7 13  1  0
  7 14  1  0
 20 21  1  0
M  END
> <minimizedAffinity>
-5.48895

> <CNNscore>
0.2400363535

> <CNNaffinity>
5.1214466095

> <CNN_VS>
1.2293334007

> <CNNaffinity_variance>
0.6025273204

$$$$



 27 29  0  0  0  0  0  0  0  0999 V2000
  -33.6306    0.7263    5.1911 C   0  0  0  0  0  0  0  0  0  0  0  0
  -34.4986   -0.2713    5.8869 C   0  0  0  0  0  0  0  0  0  0  0  0
  -35.0502   -1.4259    5.3515 C   0  0  0  0  0  0  0  0  0  0  0  0
  -35.7897   -2.0431    6.3258 N   0  0  0  0  0  0  0  0  0  0  0  0
  -35.7313   -1.3172    7.4885 C   0  0  0  0  0  0  0  0  0  0  0  0
  -36.2986   -1.5053    8.7370 C   0  0  0  0  0  0  0  0  0  0  0  0
  -37.0726   -2.6044    9.0783 N   0  0  0  0  0  0  0  0  0  0  0  0
  -36.0687   -0.5741    9.6757 N   0  0  0  0  0  0  0  0  0  0  0  0
  -35.3011    0.4845    9.3459 C   0  0  0  0  0  0  0  0  0  0  0  0
  -34.7049    0.7441    8.1725 N   0  0  0  0  0  0  0  0  0  0  0  0
  -34.9466   -0.2004    7.2368 C   0  0  0  0  0  0  0  0  0  0  0  0
  -36.2893   -2.8833    6.2089 H   0  0  0  0  0  0  0  0  0  0  0  0
  -37.2574   -3.3030    8.4097 H   0  0  0  0  0  0  0  0  0  0  0  0
  -37.4372   -2.6861    9.9892 H   0  0  0  0  0  0  0  0  0  0  0  0
  -34.9487    2.4313    2.3270 C   0  0  0  0  0  0  0  0  0  0  0  0
  -35.2231    1.4890    3.5030 C   0  0  0  0  0  0  0  0  0  0  0  0
  -33.9597    0.7793    3.7647 N   0  0  0  0  0  0  0  0  0  0  0  0
  -32.9176    1.4295    2.9559 C   0  0  0  0  0  0  0  0  0  0  0  0
  -33.6760    1.8688    1.7062 C   0  0  0  0  0  0  0  0  0  0  0  0
  -32.9781    2.8662    0.9772 O   0  0  0  0  0  0  0  0  0  0  0  0
  -32.7969    3.6228    1.5566 H   0  0  0  0  0  0  0  0  0  0  0  0
  -36.1261    2.6790    1.3836 C   0  0  0  0  0  0  0  0  0  0  0  0
  -36.4120    4.4254    0.9382 S   0  0  0  0  0  0  0  0  0  0  0  0
  -38.1369    4.6181    1.5053 C   0  0  0  0  0  0  0  0  0  0  0  0
  -39.1905    3.8774    0.6779 C   0  0  0  0  0  0  0  0  0  0  0  0
  -41.5724    4.3551    1.4546 C   0  0  0  0  0  0  0  0  0  0  0  0
  -40.4164    3.3670    1.4398 C   0  0  0  0  0  0  0  0  0  0  0  0
 26 27  1  0
 27 25  1  0
 25 24  1  0
 24 23  1  0
 23 22  1  0
 15 22  1  0
 15 16  1  0
 16 17  1  0
 17  1  1  0
  1  2  1  0
  2  3  2  0
  3  4  1  0
  4  5  1  0
  5  6  2  0
  6  7  1  0
  6  8  1  0
  8  9  2  0
  9 10  1  0
 10 11  2  0
 17 18  1  0
 18 19  1  0
 19 20  1  0
 19 15  1  0
 11  2  1  0
 11  5  1  0
  4 12  1  0
  7 13  1  0
  7 14  1  0
 20 21  1  0
M  END
> <minimizedAffinity>
-6.33366

> <CNNscore>
0.2250385582

> <CNNaffinity>
5.8492331505

> <CNN_VS>
1.3163030148

> <CNNaffinity_variance>
0.3944917023

$$$$



 27 29  0  0  0  0  0  0  0  0999 V2000
  -36.8847    4.4358   -0.0013 C   0  0  0  0  0  0  0  0  0  0  0  0
  -38.0249    5.3278    0.3690 C   0  0  0  0  0  0  0  0  0  0  0  0
  -38.0479    6.7146    0.3547 C   0  0  0  0  0  0  0  0  0  0  0  0
  -39.2821    7.1303    0.7804 N   0  0  0  0  0  0  0  0  0  0  0  0
  -40.0679    6.0438    1.0704 C   0  0  0  0  0  0  0  0  0  0  0  0
  -41.3674    5.9272    1.5327 C   0  0  0  0  0  0  0  0  0  0  0  0
  -42.2064    7.0069    1.7654 N   0  0  0  0  0  0  0  0  0  0  0  0
  -41.8457    4.6924    1.7509 N   0  0  0  0  0  0  0  0  0  0  0  0
  -41.0333    3.6441    1.5068 C   0  0  0  0  0  0  0  0  0  0  0  0
  -39.7715    3.6602    1.0513 N   0  0  0  0  0  0  0  0  0  0  0  0
  -39.3027    4.9094    0.8380 C   0  0  0  0  0  0  0  0  0  0  0  0
  -39.5634    8.0699    0.8655 H   0  0  0  0  0  0  0  0  0  0  0  0
  -41.8821    7.9239    1.6137 H   0  0  0  0  0  0  0  0  0  0  0  0
  -43.1263    6.8561    2.0821 H   0  0  0  0  0  0  0  0  0  0  0  0
  -34.3857    2.4756    1.6601 C   0  0  0  0  0  0  0  0  0  0  0  0
  -35.8661    2.6382    1.3019 C   0  0  0  0  0  0  0  0  0  0  0  0
  -36.1051    4.0867    1.1887 N   0  0  0  0  0  0  0  0  0  0  0  0
  -34.7937    4.7509    1.2346 C   0  0  0  0  0  0  0  0  0  0  0  0
  -33.9866    3.8548    2.1703 C   0  0  0  0  0  0  0  0  0  0  0  0
  -32.5892    4.0636    2.0412 O   0  0  0  0  0  0  0  0  0  0  0  0
  -32.3258    3.9268    1.1177 H   0  0  0  0  0  0  0  0  0  0  0  0
  -34.0442    1.2832    2.5540 C   0  0  0  0  0  0  0  0  0  0  0  0
  -34.6861    1.3803    4.2595 S   0  0  0  0  0  0  0  0  0  0  0  0
  -34.8345   -0.3986    4.6434 C   0  0  0  0  0  0  0  0  0  0  0  0
  -35.3571   -0.7305    6.0433 C   0  0  0  0  0  0  0  0  0  0  0  0
  -36.6561   -2.6817    7.0484 C   0  0  0  0  0  0  0  0  0  0  0  0
  -35.3450   -2.2092    6.4396 C   0  0  0  0  0  0  0  0  0  0  0  0
 26 27  1  0
 27 25  1  0
 25 24  1  0
 24 23  1  0
 23 22  1  0
 15 22  1  0
 15 16  1  0
 16 17  1  0
 17  1  1  0
  1  2  1  0
  2  3  2  0
  3  4  1  0
  4  5  1  0
  5  6  2  0
  6  7  1  0
  6  8  1  0
  8  9  2  0
  9 10  1  0
 10 11  2  0
 17 18  1  0
 18 19  1  0
 19 20  1  0
 19 15  1  0
 11  2  1  0
 11  5  1  0
  4 12  1  0
  7 13  1  0
  7 14  1  0
 20 21  1  0
M  END
> <minimizedAffinity>
-5.42681

> <CNNscore>
0.2188117206

> <CNNaffinity>
5.9072966576

> <CNN_VS>
1.2925857306

> <CNNaffinity_variance>
0.0566840023

$$$$
