


 23 26  0  0  0  0  0  0  0  0999 V2000
   27.3970   17.3825   -4.3744 C   0  0  0  0  0  0  0  0  0  0  0  0
   28.6793   16.6436   -4.3009 C   0  0  0  0  0  0  0  0  0  0  0  0
   29.4908   16.4676   -5.3242 N   0  0  0  0  0  0  0  0  0  0  0  0
   30.6354   15.8764   -4.8691 N   0  0  0  0  0  0  0  0  0  0  0  0
   30.5088   15.6943   -3.5727 C   0  0  0  0  0  0  0  0  0  0  0  0
   29.2676   16.1262   -3.1569 N   0  0  0  0  0  0  0  0  0  0  0  0
   28.7384   15.9632   -1.8505 C   0  0  0  0  0  0  0  0  0  0  0  0
   27.3694   15.6870   -1.6942 C   0  0  0  0  0  0  0  0  0  0  0  0
   26.8386   15.4279   -0.4278 C   0  0  0  0  0  0  0  0  0  0  0  0
   27.6701   15.4284    0.6862 C   0  0  0  0  0  0  0  0  0  0  0  0
   27.0174   15.0908    2.2402 Cl  0  0  0  0  0  0  0  0  0  0  0  0
   29.0279   15.7029    0.5505 C   0  0  0  0  0  0  0  0  0  0  0  0
   29.5715   15.9934   -0.7138 C   0  0  0  0  0  0  0  0  0  0  0  0
   31.0152   16.3967   -0.7565 C   0  0  0  0  0  0  0  0  0  0  0  0
   31.8790   15.9605   -1.6087 N   0  0  0  0  0  0  0  0  0  0  0  0
   31.4734   15.0393   -2.6614 C   0  0  0  0  0  0  0  0  0  0  0  0
   31.5122   17.3840    0.2576 C   0  0  0  0  0  0  0  0  0  0  0  0
   32.8824   17.5549    0.4964 C   0  0  0  0  0  0  0  0  0  0  0  0
   33.3149   18.4785    1.4524 C   0  0  0  0  0  0  0  0  0  0  0  0
   32.3796   19.2192    2.1746 C   0  0  0  0  0  0  0  0  0  0  0  0
   32.9690   20.4665    3.4667 Br  0  0  0  0  0  0  0  0  0  0  0  0
   31.0145   19.0416    1.9571 C   0  0  0  0  0  0  0  0  0  0  0  0
   30.5804   18.1195    1.0020 C   0  0  0  0  0  0  0  0  0  0  0  0
  1  2  1  0
  2  3  2  0
  3  4  1  0
  4  5  2  0
  5  6  1  0
  6  7  1  0
  7  8  2  0
  8  9  1  0
  9 10  2  0
 10 11  1  0
 10 12  1  0
 12 13  2  0
 13 14  1  0
 14 17  1  0
 17 18  2  0
 18 19  1  0
 19 20  2  0
 20 21  1  0
 20 22  1  0
 22 23  2  0
 14 15  2  0
 15 16  1  0
  6  2  1  0
 13  7  1  0
 23 17  1  0
 16  5  1  0
M  END
> <minimizedAffinity>
-10.01904

> <CNNscore>
0.8978869915

> <CNNaffinity>
6.7781810760

> <CNN_VS>
6.0860404968

> <CNNaffinity_variance>
0.0829608217

$$$$



 23 26  0  0  0  0  0  0  0  0999 V2000
   33.1583   18.7620    0.3076 C   0  0  0  0  0  0  0  0  0  0  0  0
   31.9128   18.1147    0.7826 C   0  0  0  0  0  0  0  0  0  0  0  0
   31.2184   18.5238    1.8251 N   0  0  0  0  0  0  0  0  0  0  0  0
   30.0640   17.7955    1.8860 N   0  0  0  0  0  0  0  0  0  0  0  0
   30.0679   16.9465    0.8815 C   0  0  0  0  0  0  0  0  0  0  0  0
   31.2381   17.0731    0.1643 N   0  0  0  0  0  0  0  0  0  0  0  0
   31.6402   16.2297   -0.9036 C   0  0  0  0  0  0  0  0  0  0  0  0
   32.9983   15.8954   -1.0401 C   0  0  0  0  0  0  0  0  0  0  0  0
   33.4106   14.9922   -2.0235 C   0  0  0  0  0  0  0  0  0  0  0  0
   32.4718   14.4073   -2.8655 C   0  0  0  0  0  0  0  0  0  0  0  0
   32.9801   13.2824   -4.0619 Cl  0  0  0  0  0  0  0  0  0  0  0  0
   31.1229   14.7291   -2.7467 C   0  0  0  0  0  0  0  0  0  0  0  0
   30.6961   15.6578   -1.7804 C   0  0  0  0  0  0  0  0  0  0  0  0
   29.2461   16.0396   -1.7986 C   0  0  0  0  0  0  0  0  0  0  0  0
   28.4951   16.1381   -0.7551 N   0  0  0  0  0  0  0  0  0  0  0  0
   29.0495   15.9179    0.5737 C   0  0  0  0  0  0  0  0  0  0  0  0
   28.6016   16.3375   -3.1200 C   0  0  0  0  0  0  0  0  0  0  0  0
   27.4062   17.0645   -3.1994 C   0  0  0  0  0  0  0  0  0  0  0  0
   26.8261   17.3210   -4.4450 C   0  0  0  0  0  0  0  0  0  0  0  0
   27.4336   16.8416   -5.6053 C   0  0  0  0  0  0  0  0  0  0  0  0
   26.6454   17.1904   -7.2875 Br  0  0  0  0  0  0  0  0  0  0  0  0
   28.6122   16.1012   -5.5340 C   0  0  0  0  0  0  0  0  0  0  0  0
   29.1936   15.8442   -4.2903 C   0  0  0  0  0  0  0  0  0  0  0  0
  1  2  1  0
  2  3  2  0
  3  4  1  0
  4  5  2  0
  5  6  1  0
  6  7  1  0
  7  8  2  0
  8  9  1  0
  9 10  2  0
 10 11  1  0
 10 12  1  0
 12 13  2  0
 13 14  1  0
 14 17  1  0
 17 18  2  0
 18 19  1  0
 19 20  2  0
 20 21  1  0
 20 22  1  0
 22 23  2  0
 14 15  2  0
 15 16  1  0
  6  2  1  0
 13  7  1  0
 23 17  1  0
 16  5  1  0
M  END
> <minimizedAffinity>
-7.48777

> <CNNscore>
0.6789672971

> <CNNaffinity>
6.0501837730

> <CNN_VS>
4.1078767776

> <CNNaffinity_variance>
0.0670374930

$$$$



 23 26  0  0  0  0  0  0  0  0999 V2000
   35.8563   14.2141   -8.4903 C   0  0  0  0  0  0  0  0  0  0  0  0
   36.6429   14.2753   -7.2360 C   0  0  0  0  0  0  0  0  0  0  0  0
   36.4500   15.1672   -6.2852 N   0  0  0  0  0  0  0  0  0  0  0  0
   37.2436   14.8413   -5.2219 N   0  0  0  0  0  0  0  0  0  0  0  0
   37.9157   13.7554   -5.5365 C   0  0  0  0  0  0  0  0  0  0  0  0
   37.6067   13.3682   -6.8229 N   0  0  0  0  0  0  0  0  0  0  0  0
   38.2400   12.3185   -7.5372 C   0  0  0  0  0  0  0  0  0  0  0  0
   38.4690   12.4671   -8.9157 C   0  0  0  0  0  0  0  0  0  0  0  0
   39.1744   11.4924   -9.6263 C   0  0  0  0  0  0  0  0  0  0  0  0
   39.6671   10.3729   -8.9656 C   0  0  0  0  0  0  0  0  0  0  0  0
   40.5506    9.1848   -9.8390 Cl  0  0  0  0  0  0  0  0  0  0  0  0
   39.4471   10.2078   -7.6011 C   0  0  0  0  0  0  0  0  0  0  0  0
   38.7146   11.1664   -6.8781 C   0  0  0  0  0  0  0  0  0  0  0  0
   38.4189   10.8540   -5.4415 C   0  0  0  0  0  0  0  0  0  0  0  0
   38.5353   11.6881   -4.4652 N   0  0  0  0  0  0  0  0  0  0  0  0
   38.9371   13.0651   -4.7180 C   0  0  0  0  0  0  0  0  0  0  0  0
   37.9470    9.4735   -5.0924 C   0  0  0  0  0  0  0  0  0  0  0  0
   36.7431    8.9659   -5.5993 C   0  0  0  0  0  0  0  0  0  0  0  0
   36.3265    7.6779   -5.2510 C   0  0  0  0  0  0  0  0  0  0  0  0
   37.1055    6.9058   -4.3895 C   0  0  0  0  0  0  0  0  0  0  0  0
   36.5380    5.1649   -3.9208 Br  0  0  0  0  0  0  0  0  0  0  0  0
   38.2945    7.4101   -3.8656 C   0  0  0  0  0  0  0  0  0  0  0  0
   38.7126    8.6968   -4.2128 C   0  0  0  0  0  0  0  0  0  0  0  0
  1  2  1  0
  2  3  2  0
  3  4  1  0
  4  5  2  0
  5  6  1  0
  6  7  1  0
  7  8  2  0
  8  9  1  0
  9 10  2  0
 10 11  1  0
 10 12  1  0
 12 13  2  0
 13 14  1  0
 14 17  1  0
 17 18  2  0
 18 19  1  0
 19 20  2  0
 20 21  1  0
 20 22  1  0
 22 23  2  0
 14 15  2  0
 15 16  1  0
  6  2  1  0
 13  7  1  0
 23 17  1  0
 16  5  1  0
M  END
> <minimizedAffinity>
-5.13140

> <CNNscore>
0.4977042079

> <CNNaffinity>
5.6236529350

> <CNN_VS>
2.7989156246

> <CNNaffinity_variance>
0.3959263265

$$$$



 23 26  0  0  0  0  0  0  0  0999 V2000
   29.6186   16.4690   -0.1108 C   0  0  0  0  0  0  0  0  0  0  0  0
   30.7071   16.3004   -1.1021 C   0  0  0  0  0  0  0  0  0  0  0  0
   31.9877   16.4405   -0.8247 N   0  0  0  0  0  0  0  0  0  0  0  0
   32.7092   16.0724   -1.9251 N   0  0  0  0  0  0  0  0  0  0  0  0
   31.8606   15.7150   -2.8642 C   0  0  0  0  0  0  0  0  0  0  0  0
   30.5676   15.8761   -2.4147 N   0  0  0  0  0  0  0  0  0  0  0  0
   29.3994   15.7131   -3.2035 C   0  0  0  0  0  0  0  0  0  0  0  0
   28.3062   16.5716   -2.9963 C   0  0  0  0  0  0  0  0  0  0  0  0
   27.1802   16.4970   -3.8205 C   0  0  0  0  0  0  0  0  0  0  0  0
   27.1432   15.5779   -4.8628 C   0  0  0  0  0  0  0  0  0  0  0  0
   25.7643   15.5015   -5.8864 Cl  0  0  0  0  0  0  0  0  0  0  0  0
   28.2156   14.7177   -5.0807 C   0  0  0  0  0  0  0  0  0  0  0  0
   29.3439   14.7617   -4.2421 C   0  0  0  0  0  0  0  0  0  0  0  0
   30.4003   13.7219   -4.4692 C   0  0  0  0  0  0  0  0  0  0  0  0
   31.6689   13.9512   -4.4945 N   0  0  0  0  0  0  0  0  0  0  0  0
   32.1792   15.2926   -4.2462 C   0  0  0  0  0  0  0  0  0  0  0  0
   29.9706   12.3004   -4.6813 C   0  0  0  0  0  0  0  0  0  0  0  0
   30.0611   11.6929   -5.9410 C   0  0  0  0  0  0  0  0  0  0  0  0
   29.6470   10.3685   -6.1090 C   0  0  0  0  0  0  0  0  0  0  0  0
   29.1334    9.6590   -5.0236 C   0  0  0  0  0  0  0  0  0  0  0  0
   28.5742    7.8685   -5.2556 Br  0  0  0  0  0  0  0  0  0  0  0  0
   29.0220   10.2617   -3.7719 C   0  0  0  0  0  0  0  0  0  0  0  0
   29.4357   11.5849   -3.6019 C   0  0  0  0  0  0  0  0  0  0  0  0
  1  2  1  0
  2  3  2  0
  3  4  1  0
  4  5  2  0
  5  6  1  0
  6  7  1  0
  7  8  2  0
  8  9  1  0
  9 10  2  0
 10 11  1  0
 10 12  1  0
 12 13  2  0
 13 14  1  0
 14 17  1  0
 17 18  2  0
 18 19  1  0
 19 20  2  0
 20 21  1  0
 20 22  1  0
 22 23  2  0
 14 15  2  0
 15 16  1  0
  6  2  1  0
 13  7  1  0
 23 17  1  0
 16  5  1  0
M  END
> <minimizedAffinity>
-5.83530

> <CNNscore>
0.3409309983

> <CNNaffinity>
5.0373120308

> <CNN_VS>
1.7173758745

> <CNNaffinity_variance>
0.1237322986

$$$$



 23 26  0  0  0  0  0  0  0  0999 V2000
   28.8028   15.9306    1.2515 C   0  0  0  0  0  0  0  0  0  0  0  0
   30.1031   16.2312    0.6076 C   0  0  0  0  0  0  0  0  0  0  0  0
   31.1957   16.5606    1.2667 N   0  0  0  0  0  0  0  0  0  0  0  0
   32.2319   16.6227    0.3783 N   0  0  0  0  0  0  0  0  0  0  0  0
   31.7598   16.3340   -0.8148 C   0  0  0  0  0  0  0  0  0  0  0  0
   30.4010   16.1139   -0.7414 N   0  0  0  0  0  0  0  0  0  0  0  0
   29.5430   15.9083   -1.8526 C   0  0  0  0  0  0  0  0  0  0  0  0
   28.2461   16.4490   -1.8276 C   0  0  0  0  0  0  0  0  0  0  0  0
   27.4127   16.3444   -2.9443 C   0  0  0  0  0  0  0  0  0  0  0  0
   27.8713   15.7139   -4.0953 C   0  0  0  0  0  0  0  0  0  0  0  0
   26.8502   15.6033   -5.4738 Cl  0  0  0  0  0  0  0  0  0  0  0  0
   29.1518   15.1699   -4.1369 C   0  0  0  0  0  0  0  0  0  0  0  0
   29.9918   15.2425   -3.0112 C   0  0  0  0  0  0  0  0  0  0  0  0
   31.3068   14.5269   -3.0973 C   0  0  0  0  0  0  0  0  0  0  0  0
   32.4378   15.0108   -2.7109 N   0  0  0  0  0  0  0  0  0  0  0  0
   32.5019   16.3292   -2.0951 C   0  0  0  0  0  0  0  0  0  0  0  0
   31.3303   13.1404   -3.6696 C   0  0  0  0  0  0  0  0  0  0  0  0
   32.0817   12.8376   -4.8130 C   0  0  0  0  0  0  0  0  0  0  0  0
   32.0788   11.5375   -5.3266 C   0  0  0  0  0  0  0  0  0  0  0  0
   31.3176   10.5477   -4.7053 C   0  0  0  0  0  0  0  0  0  0  0  0
   31.3162    8.7913   -5.4036 Br  0  0  0  0  0  0  0  0  0  0  0  0
   30.5523   10.8448   -3.5791 C   0  0  0  0  0  0  0  0  0  0  0  0
   30.5542   12.1432   -3.0642 C   0  0  0  0  0  0  0  0  0  0  0  0
  1  2  1  0
  2  3  2  0
  3  4  1  0
  4  5  2  0
  5  6  1  0
  6  7  1  0
  7  8  2  0
  8  9  1  0
  9 10  2  0
 10 11  1  0
 10 12  1  0
 12 13  2  0
 13 14  1  0
 14 17  1  0
 17 18  2  0
 18 19  1  0
 19 20  2  0
 20 21  1  0
 20 22  1  0
 22 23  2  0
 14 15  2  0
 15 16  1  0
  6  2  1  0
 13  7  1  0
 23 17  1  0
 16  5  1  0
M  END
> <minimizedAffinity>
-6.71334

> <CNNscore>
0.3404442370

> <CNNaffinity>
5.3542447090

> <CNN_VS>
1.8228217363

> <CNNaffinity_variance>
0.4482873976

$$$$



 23 26  0  0  0  0  0  0  0  0999 V2000
   32.9191   14.0346   -3.1714 C   0  0  0  0  0  0  0  0  0  0  0  0
   31.6867   14.6608   -3.7053 C   0  0  0  0  0  0  0  0  0  0  0  0
   31.1778   14.3967   -4.8918 N   0  0  0  0  0  0  0  0  0  0  0  0
   29.9735   15.0338   -4.9951 N   0  0  0  0  0  0  0  0  0  0  0  0
   29.7619   15.6835   -3.8713 C   0  0  0  0  0  0  0  0  0  0  0  0
   30.8363   15.5179   -3.0238 N   0  0  0  0  0  0  0  0  0  0  0  0
   31.0098   16.1809   -1.7813 C   0  0  0  0  0  0  0  0  0  0  0  0
   32.2982   16.5872   -1.3943 C   0  0  0  0  0  0  0  0  0  0  0  0
   32.4868   17.3250   -0.2226 C   0  0  0  0  0  0  0  0  0  0  0  0
   31.3928   17.6736    0.5611 C   0  0  0  0  0  0  0  0  0  0  0  0
   31.6262   18.5972    1.9921 Cl  0  0  0  0  0  0  0  0  0  0  0  0
   30.1099   17.2770    0.1948 C   0  0  0  0  0  0  0  0  0  0  0  0
   29.9075   16.5100   -0.9667 C   0  0  0  0  0  0  0  0  0  0  0  0
   28.5132   16.0219   -1.2243 C   0  0  0  0  0  0  0  0  0  0  0  0
   27.9173   16.0582   -2.3672 N   0  0  0  0  0  0  0  0  0  0  0  0
   28.6139   16.5582   -3.5445 C   0  0  0  0  0  0  0  0  0  0  0  0
   27.7364   15.4402   -0.0804 C   0  0  0  0  0  0  0  0  0  0  0  0
   28.1746   15.5809    1.2433 C   0  0  0  0  0  0  0  0  0  0  0  0
   27.4324   15.0223    2.2878 C   0  0  0  0  0  0  0  0  0  0  0  0
   26.2631   14.3157    2.0077 C   0  0  0  0  0  0  0  0  0  0  0  0
   25.2630   13.5615    3.4232 Br  0  0  0  0  0  0  0  0  0  0  0  0
   25.8304   14.1545    0.6927 C   0  0  0  0  0  0  0  0  0  0  0  0
   26.5705   14.7123   -0.3524 C   0  0  0  0  0  0  0  0  0  0  0  0
  1  2  1  0
  2  3  2  0
  3  4  1  0
  4  5  2  0
  5  6  1  0
  6  7  1  0
  7  8  2  0
  8  9  1  0
  9 10  2  0
 10 11  1  0
 10 12  1  0
 12 13  2  0
 13 14  1  0
 14 17  1  0
 17 18  2  0
 18 19  1  0
 19 20  2  0
 20 21  1  0
 20 22  1  0
 22 23  2  0
 14 15  2  0
 15 16  1  0
  6  2  1  0
 13  7  1  0
 23 17  1  0
 16  5  1  0
M  END
> <minimizedAffinity>
-8.50479

> <CNNscore>
0.3351787329

> <CNNaffinity>
5.5365223885

> <CNN_VS>
1.8557245731

> <CNNaffinity_variance>
0.3438690603

$$$$



 23 26  0  0  0  0  0  0  0  0999 V2000
   31.4558   16.8771   -7.0252 C   0  0  0  0  0  0  0  0  0  0  0  0
   32.2235   15.8625   -6.2657 C   0  0  0  0  0  0  0  0  0  0  0  0
   33.3628   15.3402   -6.6729 N   0  0  0  0  0  0  0  0  0  0  0  0
   33.8608   14.5580   -5.6694 N   0  0  0  0  0  0  0  0  0  0  0  0
   33.0178   14.6083   -4.6611 C   0  0  0  0  0  0  0  0  0  0  0  0
   31.9337   15.3917   -4.9942 N   0  0  0  0  0  0  0  0  0  0  0  0
   30.7705   15.5617   -4.1995 C   0  0  0  0  0  0  0  0  0  0  0  0
   29.5178   15.6604   -4.8289 C   0  0  0  0  0  0  0  0  0  0  0  0
   28.3468   15.7328   -4.0699 C   0  0  0  0  0  0  0  0  0  0  0  0
   28.4163   15.6930   -2.6820 C   0  0  0  0  0  0  0  0  0  0  0  0
   26.9726   15.7635   -1.7515 Cl  0  0  0  0  0  0  0  0  0  0  0  0
   29.6486   15.5985   -2.0417 C   0  0  0  0  0  0  0  0  0  0  0  0
   30.8377   15.5533   -2.7916 C   0  0  0  0  0  0  0  0  0  0  0  0
   32.1260   15.5745   -2.0245 C   0  0  0  0  0  0  0  0  0  0  0  0
   33.1407   14.8157   -2.2638 N   0  0  0  0  0  0  0  0  0  0  0  0
   33.1114   13.8777   -3.3776 C   0  0  0  0  0  0  0  0  0  0  0  0
   32.2677   16.5474   -0.8915 C   0  0  0  0  0  0  0  0  0  0  0  0
   33.5267   16.8935   -0.3824 C   0  0  0  0  0  0  0  0  0  0  0  0
   33.6264   17.7984    0.6783 C   0  0  0  0  0  0  0  0  0  0  0  0
   32.4705   18.3453    1.2349 C   0  0  0  0  0  0  0  0  0  0  0  0
   32.6101   19.5681    2.6695 Br  0  0  0  0  0  0  0  0  0  0  0  0
   31.2136   17.9918    0.7474 C   0  0  0  0  0  0  0  0  0  0  0  0
   31.1119   17.0880   -0.3127 C   0  0  0  0  0  0  0  0  0  0  0  0
  1  2  1  0
  2  3  2  0
  3  4  1  0
  4  5  2  0
  5  6  1  0
  6  7  1  0
  7  8  2  0
  8  9  1  0
  9 10  2  0
 10 11  1  0
 10 12  1  0
 12 13  2  0
 13 14  1  0
 14 17  1  0
 17 18  2  0
 18 19  1  0
 19 20  2  0
 20 21  1  0
 20 22  1  0
 22 23  2  0
 14 15  2  0
 15 16  1  0
  6  2  1  0
 13  7  1  0
 23 17  1  0
 16  5  1  0
M  END
> <minimizedAffinity>
-8.45454

> <CNNscore>
0.2686428130

> <CNNaffinity>
5.2944965363

> <CNN_VS>
1.4223284721

> <CNNaffinity_variance>
0.5891099572

$$$$



 23 26  0  0  0  0  0  0  0  0999 V2000
   32.6650   15.8683   -1.1729 C   0  0  0  0  0  0  0  0  0  0  0  0
   31.3361   15.9515   -0.5226 C   0  0  0  0  0  0  0  0  0  0  0  0
   31.0665   16.7217    0.5122 N   0  0  0  0  0  0  0  0  0  0  0  0
   29.7235   16.6604    0.7560 N   0  0  0  0  0  0  0  0  0  0  0  0
   29.1879   15.8501   -0.1308 C   0  0  0  0  0  0  0  0  0  0  0  0
   30.1700   15.3346   -0.9492 N   0  0  0  0  0  0  0  0  0  0  0  0
   29.9742   14.3292   -1.9310 C   0  0  0  0  0  0  0  0  0  0  0  0
   30.9741   13.3623   -2.1321 C   0  0  0  0  0  0  0  0  0  0  0  0
   30.7696   12.3059   -3.0237 C   0  0  0  0  0  0  0  0  0  0  0  0
   29.5642   12.1993   -3.7080 C   0  0  0  0  0  0  0  0  0  0  0  0
   29.3087   10.8881   -4.7900 Cl  0  0  0  0  0  0  0  0  0  0  0  0
   28.5640   13.1494   -3.5235 C   0  0  0  0  0  0  0  0  0  0  0  0
   28.7660   14.2339   -2.6509 C   0  0  0  0  0  0  0  0  0  0  0  0
   27.6889   15.2761   -2.6014 C   0  0  0  0  0  0  0  0  0  0  0  0
   27.2213   15.8043   -1.5221 N   0  0  0  0  0  0  0  0  0  0  0  0
   27.7706   15.4352   -0.2246 C   0  0  0  0  0  0  0  0  0  0  0  0
   27.0997   15.7574   -3.8942 C   0  0  0  0  0  0  0  0  0  0  0  0
   26.3388   14.9077   -4.7084 C   0  0  0  0  0  0  0  0  0  0  0  0
   25.8079   15.3833   -5.9109 C   0  0  0  0  0  0  0  0  0  0  0  0
   26.0475   16.7003   -6.3024 C   0  0  0  0  0  0  0  0  0  0  0  0
   25.3281   17.3390   -7.9294 Br  0  0  0  0  0  0  0  0  0  0  0  0
   26.8192   17.5464   -5.5080 C   0  0  0  0  0  0  0  0  0  0  0  0
   27.3503   17.0731   -4.3060 C   0  0  0  0  0  0  0  0  0  0  0  0
  1  2  1  0
  2  3  2  0
  3  4  1  0
  4  5  2  0
  5  6  1  0
  6  7  1  0
  7  8  2  0
  8  9  1  0
  9 10  2  0
 10 11  1  0
 10 12  1  0
 12 13  2  0
 13 14  1  0
 14 17  1  0
 17 18  2  0
 18 19  1  0
 19 20  2  0
 20 21  1  0
 20 22  1  0
 22 23  2  0
 14 15  2  0
 15 16  1  0
  6  2  1  0
 13  7  1  0
 23 17  1  0
 16  5  1  0
M  END
> <minimizedAffinity>
-6.78393

> <CNNscore>
0.2644268572

> <CNNaffinity>
5.2037429810

> <CNN_VS>
1.3760093451

> <CNNaffinity_variance>
0.3458348811

$$$$



 23 26  0  0  0  0  0  0  0  0999 V2000
   19.9203   16.0191   -2.5960 C   0  0  0  0  0  0  0  0  0  0  0  0
   20.0113   14.6362   -2.0713 C   0  0  0  0  0  0  0  0  0  0  0  0
   19.9110   13.5545   -2.8173 N   0  0  0  0  0  0  0  0  0  0  0  0
   20.1867   12.4669   -2.0375 N   0  0  0  0  0  0  0  0  0  0  0  0
   20.4489   12.8964   -0.8224 C   0  0  0  0  0  0  0  0  0  0  0  0
   20.3144   14.2672   -0.7697 N   0  0  0  0  0  0  0  0  0  0  0  0
   20.3928   15.0536    0.4088 C   0  0  0  0  0  0  0  0  0  0  0  0
   19.5443   16.1649    0.5499 C   0  0  0  0  0  0  0  0  0  0  0  0
   19.5319   16.9011    1.7376 C   0  0  0  0  0  0  0  0  0  0  0  0
   20.3532   16.5262    2.7946 C   0  0  0  0  0  0  0  0  0  0  0  0
   20.3220   17.4227    4.2610 Cl  0  0  0  0  0  0  0  0  0  0  0  0
   21.2022   15.4301    2.6714 C   0  0  0  0  0  0  0  0  0  0  0  0
   21.2463   14.6964    1.4722 C   0  0  0  0  0  0  0  0  0  0  0  0
   22.2732   13.6076    1.3791 C   0  0  0  0  0  0  0  0  0  0  0  0
   22.0568   12.4265    0.9094 N   0  0  0  0  0  0  0  0  0  0  0  0
   20.7489   12.0765    0.3725 C   0  0  0  0  0  0  0  0  0  0  0  0
   23.6651   13.8943    1.8597 C   0  0  0  0  0  0  0  0  0  0  0  0
   24.2185   13.1995    2.9436 C   0  0  0  0  0  0  0  0  0  0  0  0
   25.5160   13.4933    3.3724 C   0  0  0  0  0  0  0  0  0  0  0  0
   26.2521   14.4865    2.7268 C   0  0  0  0  0  0  0  0  0  0  0  0
   28.0060   14.8808    3.3104 Br  0  0  0  0  0  0  0  0  0  0  0  0
   25.7023   15.1957    1.6604 C   0  0  0  0  0  0  0  0  0  0  0  0
   24.4060   14.9033    1.2302 C   0  0  0  0  0  0  0  0  0  0  0  0
  1  2  1  0
  2  3  2  0
  3  4  1  0
  4  5  2  0
  5  6  1  0
  6  7  1  0
  7  8  2  0
  8  9  1  0
  9 10  2  0
 10 11  1  0
 10 12  1  0
 12 13  2  0
 13 14  1  0
 14 17  1  0
 17 18  2  0
 18 19  1  0
 19 20  2  0
 20 21  1  0
 20 22  1  0
 22 23  2  0
 14 15  2  0
 15 16  1  0
  6  2  1  0
 13  7  1  0
 23 17  1  0
 16  5  1  0
M  END
> <minimizedAffinity>
-5.09115

> <CNNscore>
0.2545505464

> <CNNaffinity>
4.4852128029

> <CNN_VS>
1.1417133808

> <CNNaffinity_variance>
0.2605136335

$$$$
