


 89 91  0  0  0  0  0  0  0  0999 V2000
   16.3993    2.6852    5.9955 N   0  0  0  0  0  0  0  0  0  0  0  0
   15.8308    1.4316    5.9478 C   0  0  0  0  0  0  0  0  0  0  0  0
   15.7913    0.7503    4.9225 O   0  0  0  0  0  0  0  0  0  0  0  0
   16.3989    3.1753    6.8492 H   0  0  0  0  0  0  0  0  0  0  0  0
   15.2471    0.9236    7.2856 C   0  0  0  0  0  0  0  0  0  0  0  0
   13.8168    1.2190    7.2912 N   0  0  0  0  0  0  0  0  0  0  0  0
   13.3131    2.4722    7.5260 C   0  0  0  0  0  0  0  0  0  0  0  0
   14.0207    3.4565    7.7108 O   0  0  0  0  0  0  0  0  0  0  0  0
   13.1850    0.4840    7.1184 H   0  0  0  0  0  0  0  0  0  0  0  0
   11.7961    2.5318    7.5655 C   0  0  0  0  0  0  0  0  0  0  0  0
   11.2813    3.9622    7.7357 C   0  0  0  0  0  0  0  0  0  0  0  0
   10.6707    4.1838    9.1219 C   0  0  0  0  0  0  0  0  0  0  0  0
   11.5782    4.9203   10.1160 C   0  0  0  0  0  0  0  0  0  0  0  0
   11.2640    6.4052   10.3134 C   0  0  0  0  0  0  0  0  0  0  0  0
    9.9297    6.6103   10.8432 N   0  0  0  0  0  0  0  0  0  0  0  0
    9.5288    7.7999   11.4194 C   0  0  0  0  0  0  0  0  0  0  0  0
   10.2689    8.7679   11.5649 O   0  0  0  0  0  0  0  0  0  0  0  0
    9.2824    5.8704   10.7899 H   0  0  0  0  0  0  0  0  0  0  0  0
    8.0671    7.7835   11.8925 C   0  0  0  0  0  0  0  0  0  0  0  0
    7.5850    6.4758   12.2359 O   0  0  0  0  0  0  0  0  0  0  0  0
    6.8762    6.5568   13.4891 C   0  0  0  0  0  0  0  0  0  0  0  0
    6.7042    8.0449   13.8099 C   0  0  0  0  0  0  0  0  0  0  0  0
    5.5291    8.5821   13.1545 O   0  0  0  0  0  0  0  0  0  0  0  0
    7.9129    8.6608   13.1296 C   0  0  0  0  0  0  0  0  0  0  0  0
    7.6871   10.0300   12.7847 O   0  0  0  0  0  0  0  0  0  0  0  0
    5.5917    8.4258   12.1992 H   0  0  0  0  0  0  0  0  0  0  0  0
    6.9029   10.0954   12.2175 H   0  0  0  0  0  0  0  0  0  0  0  0
    7.5642    5.6985   14.4332 N   0  0  0  0  0  0  0  0  0  0  0  0
    6.9275    5.0623   15.4758 C   0  0  0  0  0  0  0  0  0  0  0  0
    7.7722    4.4281   16.2606 N   0  0  0  0  0  0  0  0  0  0  0  0
    9.0031    4.6307   15.6843 C   0  0  0  0  0  0  0  0  0  0  0  0
   10.2930    4.2034   16.0425 C   0  0  0  0  0  0  0  0  0  0  0  0
   10.5490    3.4323   17.1690 N   0  0  0  0  0  0  0  0  0  0  0  0
   11.3307    4.5459   15.2526 N   0  0  0  0  0  0  0  0  0  0  0  0
   11.0866    5.3041   14.1640 C   0  0  0  0  0  0  0  0  0  0  0  0
   12.1534    5.6264   13.4146 F   0  0  0  0  0  0  0  0  0  0  0  0
    9.8985    5.7839   13.7334 N   0  0  0  0  0  0  0  0  0  0  0  0
    8.8957    5.4046   14.5383 C   0  0  0  0  0  0  0  0  0  0  0  0
    9.8098    3.1680   17.7630 H   0  0  0  0  0  0  0  0  0  0  0  0
   11.4698    3.1499   17.3734 H   0  0  0  0  0  0  0  0  0  0  0  0
   15.9775    1.5074    8.5072 C   0  0  0  0  0  0  0  0  0  0  0  0
   17.4967    1.6216    8.3257 C   0  0  0  0  0  0  0  0  0  0  0  0
   18.2824    0.8821    9.4151 C   0  0  0  0  0  0  0  0  0  0  0  0
   19.6265    1.5406    9.7343 C   0  0  0  0  0  0  0  0  0  0  0  0
   19.6240    2.9301    9.2890 N   0  0  0  0  0  0  0  0  0  0  0  0
   19.4713    2.9639    8.2811 H   0  0  0  0  0  0  0  0  0  0  0  0
   20.5218    3.3600    9.5114 H   0  0  0  0  0  0  0  0  0  0  0  0
   16.9971    3.3062    4.8335 C   0  0  0  0  0  0  0  0  0  0  0  0
   18.1910    4.2002    5.1745 C   0  0  0  0  0  0  0  0  0  0  0  0
   17.7843    5.4331    5.9880 C   0  0  0  0  0  0  0  0  0  0  0  0
   18.1698    6.7594    5.3185 C   0  0  0  0  0  0  0  0  0  0  0  0
   17.1628    7.2569    4.2790 C   0  0  0  0  0  0  0  0  0  0  0  0
   17.1160    9.6680    4.1031 N   0  0  0  0  0  0  0  0  0  0  0  0
   16.5074    8.5701    4.6680 C   0  0  0  0  0  0  0  0  0  0  0  0
   15.5471    8.6517    5.4289 O   0  0  0  0  0  0  0  0  0  0  0  0
   17.8296    9.5336    3.4383 H   0  0  0  0  0  0  0  0  0  0  0  0
   16.7272   11.0270    4.4677 C   0  0  0  0  0  0  0  0  0  0  0  0
   19.1250   11.5219    4.2093 N   0  0  0  0  0  0  0  0  0  0  0  0
   17.9882   11.7868    4.9377 C   0  0  0  0  0  0  0  0  0  0  0  0
   17.9451   12.5949    5.8603 O   0  0  0  0  0  0  0  0  0  0  0  0
   19.1052   10.7480    3.6011 H   0  0  0  0  0  0  0  0  0  0  0  0
   20.3678   12.3067    4.2700 C   0  0  0  0  0  0  0  0  0  0  0  0
   21.5910   11.4500    4.6843 C   0  0  0  0  0  0  0  0  0  0  0  0
   22.5344   11.2135    3.7244 N   0  0  0  0  0  0  0  0  0  0  0  0
   21.6883   10.8991    5.7786 O   0  0  0  0  0  0  0  0  0  0  0  0
   22.4629   11.6513    2.8455 H   0  0  0  0  0  0  0  0  0  0  0  0
   23.2856   10.6054    3.9117 H   0  0  0  0  0  0  0  0  0  0  0  0
   20.7233   13.1453    3.0306 C   0  0  0  0  0  0  0  0  0  0  0  0
   19.9075   14.4227    2.8167 C   0  0  0  0  0  0  0  0  0  0  0  0
   20.7087   15.7227    2.7297 C   0  0  0  0  0  0  0  0  0  0  0  0
   21.1978   15.9232    1.3726 N   0  0  0  0  0  0  0  0  0  0  0  0
   21.0133   15.2427    0.6855 H   0  0  0  0  0  0  0  0  0  0  0  0
   22.6791   17.1412    0.0316 N   0  0  0  0  0  0  0  0  0  0  0  0
   21.9013   17.0297    1.0418 C   0  0  0  0  0  0  0  0  0  0  0  0
   21.6939   18.0226    1.9318 N   0  0  0  0  0  0  0  0  0  0  0  0
   23.1536   17.9880   -0.1332 H   0  0  0  0  0  0  0  0  0  0  0  0
   22.1445   18.8901    1.8153 H   0  0  0  0  0  0  0  0  0  0  0  0
   21.0919   17.8795    2.6976 H   0  0  0  0  0  0  0  0  0  0  0  0
   15.9030   11.6958    3.3625 C   0  0  0  0  0  0  0  0  0  0  0  0
   14.4021   11.8771    3.6268 C   0  0  0  0  0  0  0  0  0  0  0  0
   14.1011   12.5035    4.9868 C   0  0  0  0  0  0  0  0  0  0  0  0
   14.8617   13.7196    5.1999 N   0  0  0  0  0  0  0  0  0  0  0  0
   15.8186   13.6554    5.4220 H   0  0  0  0  0  0  0  0  0  0  0  0
   14.2868   14.9406    5.1005 C   0  0  0  0  0  0  0  0  0  0  0  0
   13.0519   15.1453    4.8234 N   0  0  0  0  0  0  0  0  0  0  0  0
   15.1721   15.9259    5.3465 N   0  0  0  0  0  0  0  0  0  0  0  0
   12.4528   14.3829    4.6529 H   0  0  0  0  0  0  0  0  0  0  0  0
   16.1089   15.7055    5.5540 H   0  0  0  0  0  0  0  0  0  0  0  0
   14.8822   16.8664    5.3187 H   0  0  0  0  0  0  0  0  0  0  0  0
 73 74  2  0
 74 75  1  0
 74 71  1  0
 71 70  1  0
 70 69  1  0
 69 68  1  0
 62 68  1  0
 62 58  1  0
 58 59  1  0
 59 60  2  0
 59 57  1  0
 57 79  1  0
 79 80  1  0
 80 81  1  0
 81 82  1  0
 82 84  1  0
 84 85  2  0
 84 86  1  0
 57 53  1  0
 53 54  1  0
 54 55  2  0
 54 52  1  0
 52 51  1  0
 51 50  1  0
 50 49  1  0
 49 48  1  0
 48  1  1  0
  1  2  1  0
  2  3  2  0
  2  5  1  0
  5 41  1  0
 41 42  1  0
 42 43  1  0
 43 44  1  0
 44 45  1  0
  5  6  1  0
  6  7  1  0
  7  8  2  0
  7 10  1  0
 10 11  1  0
 11 12  1  0
 12 13  1  0
 13 14  1  0
 14 15  1  0
 15 16  1  0
 16 17  2  0
 19 16  1  0
 19 20  1  0
 20 21  1  0
 21 28  1  0
 28 29  1  0
 29 30  2  0
 30 31  1  0
 31 32  2  0
 32 33  1  0
 32 34  1  0
 34 35  2  0
 35 36  1  0
 35 37  1  0
 37 38  2  0
 21 22  1  0
 22 23  1  0
 22 24  1  0
 24 25  1  0
 62 63  1  0
 63 64  1  0
 63 65  2  0
 24 19  1  0
 38 28  1  0
 38 31  1  0
 73 76  1  0
 75 77  1  0
 75 78  1  0
 71 72  1  0
 58 61  1  0
 82 83  1  0
 85 87  1  0
 86 88  1  0
 86 89  1  0
 53 56  1  0
  1  4  1  0
 45 46  1  0
 45 47  1  0
  6  9  1  0
 15 18  1  0
 33 39  1  0
 33 40  1  0
 23 26  1  0
 25 27  1  0
 64 66  1  0
 64 67  1  0
M  END
> <minimizedAffinity>
-7.19524

> <CNNscore>
0.4691362679

> <CNNaffinity>
7.6175789833

> <CNN_VS>
3.5736825466

> <CNNaffinity_variance>
1.3651365042

$$$$



 89 91  0  0  0  0  0  0  0  0999 V2000
   13.5466    3.9759   10.5640 N   0  0  0  0  0  0  0  0  0  0  0  0
   13.5113    3.7819   11.9271 C   0  0  0  0  0  0  0  0  0  0  0  0
   13.9906    2.7895   12.4771 O   0  0  0  0  0  0  0  0  0  0  0  0
   13.1460    4.7936   10.1896 H   0  0  0  0  0  0  0  0  0  0  0  0
   12.8312    4.9109   12.7341 C   0  0  0  0  0  0  0  0  0  0  0  0
   11.4452    4.5181   12.9737 N   0  0  0  0  0  0  0  0  0  0  0  0
   10.9801    4.1296   14.2034 C   0  0  0  0  0  0  0  0  0  0  0  0
   11.6774    4.1178   15.2121 O   0  0  0  0  0  0  0  0  0  0  0  0
   10.8156    4.5329   12.2170 H   0  0  0  0  0  0  0  0  0  0  0  0
    9.5275    3.6862   14.2036 C   0  0  0  0  0  0  0  0  0  0  0  0
    8.5750    4.8381   14.5290 C   0  0  0  0  0  0  0  0  0  0  0  0
    7.6149    5.1239   13.3714 C   0  0  0  0  0  0  0  0  0  0  0  0
    6.6980    6.3366   13.5783 C   0  0  0  0  0  0  0  0  0  0  0  0
    5.5153    6.4360   12.6119 C   0  0  0  0  0  0  0  0  0  0  0  0
    4.3073    6.8815   13.2792 N   0  0  0  0  0  0  0  0  0  0  0  0
    4.2672    7.1908   14.6248 C   0  0  0  0  0  0  0  0  0  0  0  0
    5.2318    7.0836   15.3757 O   0  0  0  0  0  0  0  0  0  0  0  0
    3.4809    6.9670   12.7509 H   0  0  0  0  0  0  0  0  0  0  0  0
    2.8818    7.6543   15.1007 C   0  0  0  0  0  0  0  0  0  0  0  0
    2.8600    9.0036   15.5900 O   0  0  0  0  0  0  0  0  0  0  0  0
    1.7192    9.6829   15.0275 C   0  0  0  0  0  0  0  0  0  0  0  0
    0.8551    8.6167   14.3468 C   0  0  0  0  0  0  0  0  0  0  0  0
   -0.0371    7.9889   15.3001 O   0  0  0  0  0  0  0  0  0  0  0  0
    1.8853    7.5752   13.9500 C   0  0  0  0  0  0  0  0  0  0  0  0
    1.3064    6.2726   13.8375 O   0  0  0  0  0  0  0  0  0  0  0  0
    0.4806    7.6179   16.0317 H   0  0  0  0  0  0  0  0  0  0  0  0
    0.8818    6.0339   14.6763 H   0  0  0  0  0  0  0  0  0  0  0  0
    2.2189   10.7994   14.2496 N   0  0  0  0  0  0  0  0  0  0  0  0
    3.0501   10.6480   13.1618 C   0  0  0  0  0  0  0  0  0  0  0  0
    3.4590   11.8040   12.6846 N   0  0  0  0  0  0  0  0  0  0  0  0
    2.8398   12.7449   13.4717 C   0  0  0  0  0  0  0  0  0  0  0  0
    2.8674   14.1499   13.4590 C   0  0  0  0  0  0  0  0  0  0  0  0
    3.6202   14.8836   12.5511 N   0  0  0  0  0  0  0  0  0  0  0  0
    2.1212   14.8200   14.3602 N   0  0  0  0  0  0  0  0  0  0  0  0
    1.3978   14.1100   15.2502 C   0  0  0  0  0  0  0  0  0  0  0  0
    0.6788   14.8226   16.1328 F   0  0  0  0  0  0  0  0  0  0  0  0
    1.3082   12.7663   15.3669 N   0  0  0  0  0  0  0  0  0  0  0  0
    2.0515   12.1431   14.4413 C   0  0  0  0  0  0  0  0  0  0  0  0
    4.1740   14.4198   11.8823 H   0  0  0  0  0  0  0  0  0  0  0  0
    3.5999   15.8676   12.5765 H   0  0  0  0  0  0  0  0  0  0  0  0
   12.9480    6.2811   12.0446 C   0  0  0  0  0  0  0  0  0  0  0  0
   11.6806    7.1394   12.1508 C   0  0  0  0  0  0  0  0  0  0  0  0
   11.8699    8.5511   11.5832 C   0  0  0  0  0  0  0  0  0  0  0  0
   12.9599    8.6233   10.5114 C   0  0  0  0  0  0  0  0  0  0  0  0
   12.5378    9.4988    9.4231 N   0  0  0  0  0  0  0  0  0  0  0  0
   11.6849    9.1306    9.0019 H   0  0  0  0  0  0  0  0  0  0  0  0
   13.2734    9.5435    8.7179 H   0  0  0  0  0  0  0  0  0  0  0  0
   14.1523    3.0191    9.6636 C   0  0  0  0  0  0  0  0  0  0  0  0
   13.1986    2.5313    8.5712 C   0  0  0  0  0  0  0  0  0  0  0  0
   13.4674    1.0781    8.1670 C   0  0  0  0  0  0  0  0  0  0  0  0
   14.9087    0.8318    7.7004 C   0  0  0  0  0  0  0  0  0  0  0  0
   15.0978    0.8854    6.1827 C   0  0  0  0  0  0  0  0  0  0  0  0
   16.9523    2.2988    6.8226 N   0  0  0  0  0  0  0  0  0  0  0  0
   16.3097    1.6984    5.7635 C   0  0  0  0  0  0  0  0  0  0  0  0
   16.6697    1.8305    4.5970 O   0  0  0  0  0  0  0  0  0  0  0  0
   16.6652    2.0897    7.7408 H   0  0  0  0  0  0  0  0  0  0  0  0
   18.0499    3.2386    6.6148 C   0  0  0  0  0  0  0  0  0  0  0  0
   17.1577    5.2963    7.6299 N   0  0  0  0  0  0  0  0  0  0  0  0
   17.4556    4.6555    6.4494 C   0  0  0  0  0  0  0  0  0  0  0  0
   17.3140    5.1680    5.3433 O   0  0  0  0  0  0  0  0  0  0  0  0
   17.1496    4.7545    8.4519 H   0  0  0  0  0  0  0  0  0  0  0  0
   16.8502    6.7293    7.7577 C   0  0  0  0  0  0  0  0  0  0  0  0
   16.0312    7.0490    9.0339 C   0  0  0  0  0  0  0  0  0  0  0  0
   16.4768    8.0793    9.8131 N   0  0  0  0  0  0  0  0  0  0  0  0
   15.0881    6.3615    9.4192 O   0  0  0  0  0  0  0  0  0  0  0  0
   17.2317    8.6343    9.5109 H   0  0  0  0  0  0  0  0  0  0  0  0
   16.0429    8.2667   10.6768 H   0  0  0  0  0  0  0  0  0  0  0  0
   18.0317    7.7078    7.6462 C   0  0  0  0  0  0  0  0  0  0  0  0
   19.4321    7.0932    7.7085 C   0  0  0  0  0  0  0  0  0  0  0  0
   20.3077    7.2943    6.4705 C   0  0  0  0  0  0  0  0  0  0  0  0
   20.3801    8.7081    6.1289 N   0  0  0  0  0  0  0  0  0  0  0  0
   19.6049    9.1454    5.7080 H   0  0  0  0  0  0  0  0  0  0  0  0
   21.6581   10.2261    7.3694 N   0  0  0  0  0  0  0  0  0  0  0  0
   21.4957    9.4297    6.3809 C   0  0  0  0  0  0  0  0  0  0  0  0
   22.4360    9.2180    5.4364 N   0  0  0  0  0  0  0  0  0  0  0  0
   22.5073   10.7128    7.4751 H   0  0  0  0  0  0  0  0  0  0  0  0
   23.3034    9.6803    5.4930 H   0  0  0  0  0  0  0  0  0  0  0  0
   22.2547    8.6013    4.6907 H   0  0  0  0  0  0  0  0  0  0  0  0
   19.1410    3.0789    7.6789 C   0  0  0  0  0  0  0  0  0  0  0  0
   18.6971    2.5818    9.0614 C   0  0  0  0  0  0  0  0  0  0  0  0
   19.3177    1.2407    9.4474 C   0  0  0  0  0  0  0  0  0  0  0  0
   20.7616    1.2573    9.3145 N   0  0  0  0  0  0  0  0  0  0  0  0
   21.2146    2.1035    9.0958 H   0  0  0  0  0  0  0  0  0  0  0  0
   21.5010    0.1366    9.4842 C   0  0  0  0  0  0  0  0  0  0  0  0
   22.0616   -0.5182    8.5353 N   0  0  0  0  0  0  0  0  0  0  0  0
   21.5927   -0.2036   10.7845 N   0  0  0  0  0  0  0  0  0  0  0  0
   21.9579   -0.2196    7.6029 H   0  0  0  0  0  0  0  0  0  0  0  0
   21.1390    0.3397   11.4688 H   0  0  0  0  0  0  0  0  0  0  0  0
   22.1135   -0.9956   11.0505 H   0  0  0  0  0  0  0  0  0  0  0  0
 73 74  2  0
 74 75  1  0
 74 71  1  0
 71 70  1  0
 70 69  1  0
 69 68  1  0
 62 68  1  0
 62 58  1  0
 58 59  1  0
 59 60  2  0
 59 57  1  0
 57 79  1  0
 79 80  1  0
 80 81  1  0
 81 82  1  0
 82 84  1  0
 84 85  2  0
 84 86  1  0
 57 53  1  0
 53 54  1  0
 54 55  2  0
 54 52  1  0
 52 51  1  0
 51 50  1  0
 50 49  1  0
 49 48  1  0
 48  1  1  0
  1  2  1  0
  2  3  2  0
  2  5  1  0
  5 41  1  0
 41 42  1  0
 42 43  1  0
 43 44  1  0
 44 45  1  0
  5  6  1  0
  6  7  1  0
  7  8  2  0
  7 10  1  0
 10 11  1  0
 11 12  1  0
 12 13  1  0
 13 14  1  0
 14 15  1  0
 15 16  1  0
 16 17  2  0
 19 16  1  0
 19 20  1  0
 20 21  1  0
 21 28  1  0
 28 29  1  0
 29 30  2  0
 30 31  1  0
 31 32  2  0
 32 33  1  0
 32 34  1  0
 34 35  2  0
 35 36  1  0
 35 37  1  0
 37 38  2  0
 21 22  1  0
 22 23  1  0
 22 24  1  0
 24 25  1  0
 62 63  1  0
 63 64  1  0
 63 65  2  0
 24 19  1  0
 38 28  1  0
 38 31  1  0
 73 76  1  0
 75 77  1  0
 75 78  1  0
 71 72  1  0
 58 61  1  0
 82 83  1  0
 85 87  1  0
 86 88  1  0
 86 89  1  0
 53 56  1  0
  1  4  1  0
 45 46  1  0
 45 47  1  0
  6  9  1  0
 15 18  1  0
 33 39  1  0
 33 40  1  0
 23 26  1  0
 25 27  1  0
 64 66  1  0
 64 67  1  0
M  END
> <minimizedAffinity>
-7.92608

> <CNNscore>
0.3631083667

> <CNNaffinity>
7.6078953743

> <CNN_VS>
2.7624905109

> <CNNaffinity_variance>
2.1264770031

$$$$



 89 91  0  0  0  0  0  0  0  0999 V2000
   15.9088    4.8838    5.1343 N   0  0  0  0  0  0  0  0  0  0  0  0
   16.0534    3.5153    5.0772 C   0  0  0  0  0  0  0  0  0  0  0  0
   16.6241    2.9381    4.1508 O   0  0  0  0  0  0  0  0  0  0  0  0
   15.4431    5.2810    5.9053 H   0  0  0  0  0  0  0  0  0  0  0  0
   15.4542    2.7408    6.2729 C   0  0  0  0  0  0  0  0  0  0  0  0
   14.3306    3.5166    6.7913 N   0  0  0  0  0  0  0  0  0  0  0  0
   13.0982    2.9712    7.0427 C   0  0  0  0  0  0  0  0  0  0  0  0
   12.8474    1.7804    6.8918 O   0  0  0  0  0  0  0  0  0  0  0  0
   14.4645    4.4757    6.9686 H   0  0  0  0  0  0  0  0  0  0  0  0
   12.0575    3.9786    7.4995 C   0  0  0  0  0  0  0  0  0  0  0  0
   11.9055    3.9979    9.0215 C   0  0  0  0  0  0  0  0  0  0  0  0
   12.6325    5.1902    9.6487 C   0  0  0  0  0  0  0  0  0  0  0  0
   11.7299    6.1642   10.4173 C   0  0  0  0  0  0  0  0  0  0  0  0
   10.3969    6.4941    9.7413 C   0  0  0  0  0  0  0  0  0  0  0  0
    9.3208    6.6289   10.7042 N   0  0  0  0  0  0  0  0  0  0  0  0
    8.5665    5.5559   11.1374 C   0  0  0  0  0  0  0  0  0  0  0  0
    8.7147    4.4100   10.7240 O   0  0  0  0  0  0  0  0  0  0  0  0
    9.1194    7.5228   11.0642 H   0  0  0  0  0  0  0  0  0  0  0  0
    7.4959    5.9430   12.1693 C   0  0  0  0  0  0  0  0  0  0  0  0
    7.2025    4.9042   13.1155 O   0  0  0  0  0  0  0  0  0  0  0  0
    7.1641    5.4783   14.4377 C   0  0  0  0  0  0  0  0  0  0  0  0
    7.1942    7.0002   14.2652 C   0  0  0  0  0  0  0  0  0  0  0  0
    5.8608    7.5212   14.0421 O   0  0  0  0  0  0  0  0  0  0  0  0
    7.9572    7.1598   12.9631 C   0  0  0  0  0  0  0  0  0  0  0  0
    7.6257    8.3828   12.3006 O   0  0  0  0  0  0  0  0  0  0  0  0
    5.4660    7.0806   13.2734 H   0  0  0  0  0  0  0  0  0  0  0  0
    6.6690    8.4171   12.1448 H   0  0  0  0  0  0  0  0  0  0  0  0
    8.1952    4.8289   15.2230 N   0  0  0  0  0  0  0  0  0  0  0  0
    8.0997    4.6407   16.5841 C   0  0  0  0  0  0  0  0  0  0  0  0
    9.2001    4.1297   17.0932 N   0  0  0  0  0  0  0  0  0  0  0  0
   10.0307    3.9451   16.0141 C   0  0  0  0  0  0  0  0  0  0  0  0
   11.3334    3.4296   15.9051 C   0  0  0  0  0  0  0  0  0  0  0  0
   12.0665    2.9883   16.9991 N   0  0  0  0  0  0  0  0  0  0  0  0
   11.8965    3.3472   14.6827 N   0  0  0  0  0  0  0  0  0  0  0  0
   11.1911    3.7853   13.6196 C   0  0  0  0  0  0  0  0  0  0  0  0
   11.7983    3.6908   12.4255 F   0  0  0  0  0  0  0  0  0  0  0  0
    9.9463    4.3121   13.6066 N   0  0  0  0  0  0  0  0  0  0  0  0
    9.4206    4.3583   14.8391 C   0  0  0  0  0  0  0  0  0  0  0  0
   11.6795    3.0370   17.9030 H   0  0  0  0  0  0  0  0  0  0  0  0
   12.9731    2.6267   16.8707 H   0  0  0  0  0  0  0  0  0  0  0  0
   16.5019    2.4210    7.3529 C   0  0  0  0  0  0  0  0  0  0  0  0
   16.3480    1.0261    7.9732 C   0  0  0  0  0  0  0  0  0  0  0  0
   17.4652    0.6922    8.9689 C   0  0  0  0  0  0  0  0  0  0  0  0
   18.3480    1.8969    9.3029 C   0  0  0  0  0  0  0  0  0  0  0  0
   19.2300    1.5794   10.4211 N   0  0  0  0  0  0  0  0  0  0  0  0
   18.6694    1.3440   11.2401 H   0  0  0  0  0  0  0  0  0  0  0  0
   19.8167    2.3868   10.6313 H   0  0  0  0  0  0  0  0  0  0  0  0
   16.4180    5.7575    4.0997 C   0  0  0  0  0  0  0  0  0  0  0  0
   17.1798    6.9646    4.6505 C   0  0  0  0  0  0  0  0  0  0  0  0
   17.4661    8.0162    3.5737 C   0  0  0  0  0  0  0  0  0  0  0  0
   18.7258    7.7173    2.7494 C   0  0  0  0  0  0  0  0  0  0  0  0
   20.0071    8.3409    3.3076 C   0  0  0  0  0  0  0  0  0  0  0  0
   21.1685    6.2296    3.1083 N   0  0  0  0  0  0  0  0  0  0  0  0
   20.9469    7.3183    3.9210 C   0  0  0  0  0  0  0  0  0  0  0  0
   21.4420    7.4340    5.0388 O   0  0  0  0  0  0  0  0  0  0  0  0
   20.8091    6.2322    2.1917 H   0  0  0  0  0  0  0  0  0  0  0  0
   21.9246    5.0712    3.5748 C   0  0  0  0  0  0  0  0  0  0  0  0
   23.8099    6.1757    2.4405 N   0  0  0  0  0  0  0  0  0  0  0  0
   23.4299    5.4169    3.5235 C   0  0  0  0  0  0  0  0  0  0  0  0
   24.1994    5.0717    4.4151 O   0  0  0  0  0  0  0  0  0  0  0  0
   23.1669    6.2658    1.7005 H   0  0  0  0  0  0  0  0  0  0  0  0
   25.1036    6.8627    2.3040 C   0  0  0  0  0  0  0  0  0  0  0  0
   25.2496    8.0535    3.2851 C   0  0  0  0  0  0  0  0  0  0  0  0
   24.1276    8.4361    3.9648 N   0  0  0  0  0  0  0  0  0  0  0  0
   26.2782    8.7179    3.3901 O   0  0  0  0  0  0  0  0  0  0  0  0
   23.3001    7.9087    3.8854 H   0  0  0  0  0  0  0  0  0  0  0  0
   24.1468    9.2392    4.5340 H   0  0  0  0  0  0  0  0  0  0  0  0
   26.3669    5.9875    2.3657 C   0  0  0  0  0  0  0  0  0  0  0  0
   27.3022    6.0569    1.1560 C   0  0  0  0  0  0  0  0  0  0  0  0
   27.8081    4.7156    0.6224 C   0  0  0  0  0  0  0  0  0  0  0  0
   26.6895    3.8969    0.1757 N   0  0  0  0  0  0  0  0  0  0  0  0
   26.2284    4.1230   -0.6642 H   0  0  0  0  0  0  0  0  0  0  0  0
   27.0369    1.9519    1.4297 N   0  0  0  0  0  0  0  0  0  0  0  0
   26.2745    2.8310    0.8969 C   0  0  0  0  0  0  0  0  0  0  0  0
   24.9280    2.7930    0.9788 N   0  0  0  0  0  0  0  0  0  0  0  0
   26.6465    1.2059    1.9400 H   0  0  0  0  0  0  0  0  0  0  0  0
   24.4854    2.0678    1.4762 H   0  0  0  0  0  0  0  0  0  0  0  0
   24.3884    3.4905    0.5411 H   0  0  0  0  0  0  0  0  0  0  0  0
   21.3921    4.5495    4.9136 C   0  0  0  0  0  0  0  0  0  0  0  0
   19.8864    4.2655    5.0005 C   0  0  0  0  0  0  0  0  0  0  0  0
   19.3221    4.4320    6.4099 C   0  0  0  0  0  0  0  0  0  0  0  0
   20.3414    4.2435    7.4239 N   0  0  0  0  0  0  0  0  0  0  0  0
   21.0205    3.5419    7.2984 H   0  0  0  0  0  0  0  0  0  0  0  0
   20.3809    5.0095    8.5388 C   0  0  0  0  0  0  0  0  0  0  0  0
   20.0072    6.2345    8.5960 N   0  0  0  0  0  0  0  0  0  0  0  0
   20.8492    4.3196    9.5970 N   0  0  0  0  0  0  0  0  0  0  0  0
   19.6733    6.6856    7.7871 H   0  0  0  0  0  0  0  0  0  0  0  0
   21.1212    3.3795    9.4904 H   0  0  0  0  0  0  0  0  0  0  0  0
   20.9194    4.7556   10.4769 H   0  0  0  0  0  0  0  0  0  0  0  0
 73 74  2  0
 74 75  1  0
 74 71  1  0
 71 70  1  0
 70 69  1  0
 69 68  1  0
 62 68  1  0
 62 58  1  0
 58 59  1  0
 59 60  2  0
 59 57  1  0
 57 79  1  0
 79 80  1  0
 80 81  1  0
 81 82  1  0
 82 84  1  0
 84 85  2  0
 84 86  1  0
 57 53  1  0
 53 54  1  0
 54 55  2  0
 54 52  1  0
 52 51  1  0
 51 50  1  0
 50 49  1  0
 49 48  1  0
 48  1  1  0
  1  2  1  0
  2  3  2  0
  2  5  1  0
  5 41  1  0
 41 42  1  0
 42 43  1  0
 43 44  1  0
 44 45  1  0
  5  6  1  0
  6  7  1  0
  7  8  2  0
  7 10  1  0
 10 11  1  0
 11 12  1  0
 12 13  1  0
 13 14  1  0
 14 15  1  0
 15 16  1  0
 16 17  2  0
 19 16  1  0
 19 20  1  0
 20 21  1  0
 21 28  1  0
 28 29  1  0
 29 30  2  0
 30 31  1  0
 31 32  2  0
 32 33  1  0
 32 34  1  0
 34 35  2  0
 35 36  1  0
 35 37  1  0
 37 38  2  0
 21 22  1  0
 22 23  1  0
 22 24  1  0
 24 25  1  0
 62 63  1  0
 63 64  1  0
 63 65  2  0
 24 19  1  0
 38 28  1  0
 38 31  1  0
 73 76  1  0
 75 77  1  0
 75 78  1  0
 71 72  1  0
 58 61  1  0
 82 83  1  0
 85 87  1  0
 86 88  1  0
 86 89  1  0
 53 56  1  0
  1  4  1  0
 45 46  1  0
 45 47  1  0
  6  9  1  0
 15 18  1  0
 33 39  1  0
 33 40  1  0
 23 26  1  0
 25 27  1  0
 64 66  1  0
 64 67  1  0
M  END
> <minimizedAffinity>
-7.13000

> <CNNscore>
0.3127330840

> <CNNaffinity>
7.4117088318

> <CNN_VS>
2.3178865910

> <CNNaffinity_variance>
1.5119013786

$$$$



 89 91  0  0  0  0  0  0  0  0999 V2000
   17.4887    5.5365    7.8928 N   0  0  0  0  0  0  0  0  0  0  0  0
   16.6631    4.5544    7.3920 C   0  0  0  0  0  0  0  0  0  0  0  0
   16.7255    4.1526    6.2293 O   0  0  0  0  0  0  0  0  0  0  0  0
   17.3867    5.8096    8.8331 H   0  0  0  0  0  0  0  0  0  0  0  0
   15.6463    3.9735    8.4005 C   0  0  0  0  0  0  0  0  0  0  0  0
   15.4414    4.9660    9.4521 N   0  0  0  0  0  0  0  0  0  0  0  0
   14.2051    5.2760    9.9570 C   0  0  0  0  0  0  0  0  0  0  0  0
   13.1738    4.7186    9.5973 O   0  0  0  0  0  0  0  0  0  0  0  0
   16.2276    5.4341    9.8153 H   0  0  0  0  0  0  0  0  0  0  0  0
   14.2192    6.3940   10.9847 C   0  0  0  0  0  0  0  0  0  0  0  0
   13.4531    6.0176   12.2542 C   0  0  0  0  0  0  0  0  0  0  0  0
   12.1944    6.8709   12.4306 C   0  0  0  0  0  0  0  0  0  0  0  0
   11.7486    7.6301   11.1740 C   0  0  0  0  0  0  0  0  0  0  0  0
   10.5215    7.0553   10.4623 C   0  0  0  0  0  0  0  0  0  0  0  0
    9.3594    7.0222   11.3293 N   0  0  0  0  0  0  0  0  0  0  0  0
    8.5040    5.9394   11.3919 C   0  0  0  0  0  0  0  0  0  0  0  0
    8.6297    4.9333   10.7006 O   0  0  0  0  0  0  0  0  0  0  0  0
    9.1723    7.8043   11.8972 H   0  0  0  0  0  0  0  0  0  0  0  0
    7.3545    6.1303   12.3933 C   0  0  0  0  0  0  0  0  0  0  0  0
    7.1226    4.9887   13.2321 O   0  0  0  0  0  0  0  0  0  0  0  0
    6.9674    5.4371   14.5937 C   0  0  0  0  0  0  0  0  0  0  0  0
    6.8543    6.9643   14.5511 C   0  0  0  0  0  0  0  0  0  0  0  0
    5.4874    7.3742   14.3008 O   0  0  0  0  0  0  0  0  0  0  0  0
    7.6563    7.3102   13.3100 C   0  0  0  0  0  0  0  0  0  0  0  0
    7.2358    8.5502   12.7353 O   0  0  0  0  0  0  0  0  0  0  0  0
    5.1736    6.9680   13.4777 H   0  0  0  0  0  0  0  0  0  0  0  0
    6.2884    8.5073   12.5315 H   0  0  0  0  0  0  0  0  0  0  0  0
    8.0210    4.8214   15.3763 N   0  0  0  0  0  0  0  0  0  0  0  0
    7.9603    4.6835   16.7454 C   0  0  0  0  0  0  0  0  0  0  0  0
    9.0756    4.1961   17.2452 N   0  0  0  0  0  0  0  0  0  0  0  0
    9.8798    3.9749   16.1532 C   0  0  0  0  0  0  0  0  0  0  0  0
   11.1820    3.4609   16.0306 C   0  0  0  0  0  0  0  0  0  0  0  0
   11.9443    3.0634   17.1215 N   0  0  0  0  0  0  0  0  0  0  0  0
   11.7148    3.3355   14.7984 N   0  0  0  0  0  0  0  0  0  0  0  0
   10.9811    3.7311   13.7379 C   0  0  0  0  0  0  0  0  0  0  0  0
   11.5587    3.5948   12.5332 F   0  0  0  0  0  0  0  0  0  0  0  0
    9.7337    4.2520   13.7367 N   0  0  0  0  0  0  0  0  0  0  0  0
    9.2387    4.3418   14.9794 C   0  0  0  0  0  0  0  0  0  0  0  0
   11.5797    3.1440   18.0324 H   0  0  0  0  0  0  0  0  0  0  0  0
   12.8492    2.7009   16.9838 H   0  0  0  0  0  0  0  0  0  0  0  0
   16.0803    2.6052    8.9535 C   0  0  0  0  0  0  0  0  0  0  0  0
   15.8626    1.4431    7.9756 C   0  0  0  0  0  0  0  0  0  0  0  0
   14.5805    1.5951    7.1485 C   0  0  0  0  0  0  0  0  0  0  0  0
   13.3224    1.1783    7.9139 C   0  0  0  0  0  0  0  0  0  0  0  0
   12.1385    1.7595    7.2898 N   0  0  0  0  0  0  0  0  0  0  0  0
   12.2113    2.7768    7.3040 H   0  0  0  0  0  0  0  0  0  0  0  0
   11.3065    1.4710    7.8046 H   0  0  0  0  0  0  0  0  0  0  0  0
   18.5007    6.1806    7.0840 C   0  0  0  0  0  0  0  0  0  0  0  0
   18.0850    7.5674    6.5892 C   0  0  0  0  0  0  0  0  0  0  0  0
   16.9929    8.1958    7.4609 C   0  0  0  0  0  0  0  0  0  0  0  0
   15.8368    8.7975    6.6501 C   0  0  0  0  0  0  0  0  0  0  0  0
   15.4593   10.2245    7.0542 C   0  0  0  0  0  0  0  0  0  0  0  0
   14.6374   12.3307    6.1969 N   0  0  0  0  0  0  0  0  0  0  0  0
   15.2476   11.1426    5.8636 C   0  0  0  0  0  0  0  0  0  0  0  0
   15.5643   10.8494    4.7140 O   0  0  0  0  0  0  0  0  0  0  0  0
   14.4817   12.5420    7.1457 H   0  0  0  0  0  0  0  0  0  0  0  0
   14.2160   13.2843    5.1750 C   0  0  0  0  0  0  0  0  0  0  0  0
   16.3888   14.4109    5.4399 N   0  0  0  0  0  0  0  0  0  0  0  0
   15.4783   13.9089    4.5389 C   0  0  0  0  0  0  0  0  0  0  0  0
   15.6559   13.9034    3.3245 O   0  0  0  0  0  0  0  0  0  0  0  0
   16.0930   14.5197    6.3726 H   0  0  0  0  0  0  0  0  0  0  0  0
   17.7709   14.7975    5.1160 C   0  0  0  0  0  0  0  0  0  0  0  0
   18.5552   13.6615    4.4116 C   0  0  0  0  0  0  0  0  0  0  0  0
   18.9040   13.8677    3.1065 N   0  0  0  0  0  0  0  0  0  0  0  0
   18.7729   12.5697    4.9321 O   0  0  0  0  0  0  0  0  0  0  0  0
   18.7326   14.7397    2.6830 H   0  0  0  0  0  0  0  0  0  0  0  0
   19.3267   13.1441    2.5897 H   0  0  0  0  0  0  0  0  0  0  0  0
   17.9631   16.1123    4.3414 C   0  0  0  0  0  0  0  0  0  0  0  0
   18.5619   17.2825    5.1256 C   0  0  0  0  0  0  0  0  0  0  0  0
   18.4871   17.1759    6.6496 C   0  0  0  0  0  0  0  0  0  0  0  0
   17.3468   17.9297    7.1520 N   0  0  0  0  0  0  0  0  0  0  0  0
   16.4389   17.5647    7.0438 H   0  0  0  0  0  0  0  0  0  0  0  0
   18.4577   19.4122    8.5818 N   0  0  0  0  0  0  0  0  0  0  0  0
   17.5158   19.1232    7.7650 C   0  0  0  0  0  0  0  0  0  0  0  0
   16.5425   19.9910    7.4177 N   0  0  0  0  0  0  0  0  0  0  0  0
   18.5034   20.3103    8.9826 H   0  0  0  0  0  0  0  0  0  0  0  0
   16.5396   20.9023    7.7902 H   0  0  0  0  0  0  0  0  0  0  0  0
   15.8354   19.7128    6.7917 H   0  0  0  0  0  0  0  0  0  0  0  0
   13.2021   12.6654    4.2069 C   0  0  0  0  0  0  0  0  0  0  0  0
   11.8292   13.3444    4.1094 C   0  0  0  0  0  0  0  0  0  0  0  0
   10.9429   13.0892    5.3268 C   0  0  0  0  0  0  0  0  0  0  0  0
   10.1635   14.2598    5.6805 N   0  0  0  0  0  0  0  0  0  0  0  0
   10.5165   15.1542    5.4693 H   0  0  0  0  0  0  0  0  0  0  0  0
    8.9622   14.1514    6.2941 C   0  0  0  0  0  0  0  0  0  0  0  0
    8.7613   14.3492    7.5448 N   0  0  0  0  0  0  0  0  0  0  0  0
    7.9888   13.8236    5.4223 N   0  0  0  0  0  0  0  0  0  0  0  0
    9.5143   14.5868    8.1328 H   0  0  0  0  0  0  0  0  0  0  0  0
    8.2055   13.6843    4.4721 H   0  0  0  0  0  0  0  0  0  0  0  0
    7.0608   13.7234    5.7354 H   0  0  0  0  0  0  0  0  0  0  0  0
 73 74  2  0
 74 75  1  0
 74 71  1  0
 71 70  1  0
 70 69  1  0
 69 68  1  0
 62 68  1  0
 62 58  1  0
 58 59  1  0
 59 60  2  0
 59 57  1  0
 57 79  1  0
 79 80  1  0
 80 81  1  0
 81 82  1  0
 82 84  1  0
 84 85  2  0
 84 86  1  0
 57 53  1  0
 53 54  1  0
 54 55  2  0
 54 52  1  0
 52 51  1  0
 51 50  1  0
 50 49  1  0
 49 48  1  0
 48  1  1  0
  1  2  1  0
  2  3  2  0
  2  5  1  0
  5 41  1  0
 41 42  1  0
 42 43  1  0
 43 44  1  0
 44 45  1  0
  5  6  1  0
  6  7  1  0
  7  8  2  0
  7 10  1  0
 10 11  1  0
 11 12  1  0
 12 13  1  0
 13 14  1  0
 14 15  1  0
 15 16  1  0
 16 17  2  0
 19 16  1  0
 19 20  1  0
 20 21  1  0
 21 28  1  0
 28 29  1  0
 29 30  2  0
 30 31  1  0
 31 32  2  0
 32 33  1  0
 32 34  1  0
 34 35  2  0
 35 36  1  0
 35 37  1  0
 37 38  2  0
 21 22  1  0
 22 23  1  0
 22 24  1  0
 24 25  1  0
 62 63  1  0
 63 64  1  0
 63 65  2  0
 24 19  1  0
 38 28  1  0
 38 31  1  0
 73 76  1  0
 75 77  1  0
 75 78  1  0
 71 72  1  0
 58 61  1  0
 82 83  1  0
 85 87  1  0
 86 88  1  0
 86 89  1  0
 53 56  1  0
  1  4  1  0
 45 46  1  0
 45 47  1  0
  6  9  1  0
 15 18  1  0
 33 39  1  0
 33 40  1  0
 23 26  1  0
 25 27  1  0
 64 66  1  0
 64 67  1  0
M  END
> <minimizedAffinity>
-6.87350

> <CNNscore>
0.3004976511

> <CNNaffinity>
7.3039641380

> <CNN_VS>
2.1948239803

> <CNNaffinity_variance>
3.3363151550

$$$$



 89 91  0  0  0  0  0  0  0  0999 V2000
   18.1582    6.6562    8.1417 N   0  0  0  0  0  0  0  0  0  0  0  0
   19.5159    6.4376    8.2187 C   0  0  0  0  0  0  0  0  0  0  0  0
   20.3068    7.2726    8.6593 O   0  0  0  0  0  0  0  0  0  0  0  0
   17.5817    5.9446    7.7804 H   0  0  0  0  0  0  0  0  0  0  0  0
   19.9879    5.0533    7.7193 C   0  0  0  0  0  0  0  0  0  0  0  0
   18.8217    4.3418    7.2029 N   0  0  0  0  0  0  0  0  0  0  0  0
   18.6804    3.9962    5.8838 C   0  0  0  0  0  0  0  0  0  0  0  0
   19.5375    4.2193    5.0356 O   0  0  0  0  0  0  0  0  0  0  0  0
   18.1037    4.0991    7.8312 H   0  0  0  0  0  0  0  0  0  0  0  0
   17.3528    3.3353    5.5562 C   0  0  0  0  0  0  0  0  0  0  0  0
   16.3717    3.4045    6.7279 C   0  0  0  0  0  0  0  0  0  0  0  0
   16.1783    2.0363    7.3867 C   0  0  0  0  0  0  0  0  0  0  0  0
   15.2735    2.0393    8.6258 C   0  0  0  0  0  0  0  0  0  0  0  0
   15.4244    3.2545    9.5441 C   0  0  0  0  0  0  0  0  0  0  0  0
   14.1885    4.0048    9.6562 N   0  0  0  0  0  0  0  0  0  0  0  0
   13.3438    3.8957   10.7437 C   0  0  0  0  0  0  0  0  0  0  0  0
   13.5439    3.1356   11.6861 O   0  0  0  0  0  0  0  0  0  0  0  0
   13.9411    4.6177    8.9266 H   0  0  0  0  0  0  0  0  0  0  0  0
   12.1054    4.7997   10.6441 C   0  0  0  0  0  0  0  0  0  0  0  0
   10.9599    4.2905   11.3436 O   0  0  0  0  0  0  0  0  0  0  0  0
   10.3667    5.3621   12.1046 C   0  0  0  0  0  0  0  0  0  0  0  0
   11.0442    6.6595   11.6525 C   0  0  0  0  0  0  0  0  0  0  0  0
   10.3998    7.1939   10.4700 O   0  0  0  0  0  0  0  0  0  0  0  0
   12.4176    6.1726   11.2283 C   0  0  0  0  0  0  0  0  0  0  0  0
   13.0116    7.0395   10.2587 O   0  0  0  0  0  0  0  0  0  0  0  0
   10.4038    6.5237    9.7688 H   0  0  0  0  0  0  0  0  0  0  0  0
   12.4229    7.1185    9.4918 H   0  0  0  0  0  0  0  0  0  0  0  0
   10.4162    4.9810   13.5024 N   0  0  0  0  0  0  0  0  0  0  0  0
   11.5620    4.5317   14.1208 C   0  0  0  0  0  0  0  0  0  0  0  0
   11.3388    4.1434   15.3581 N   0  0  0  0  0  0  0  0  0  0  0  0
   10.0015    4.3839   15.5632 C   0  0  0  0  0  0  0  0  0  0  0  0
    9.1696    4.1900   16.6791 C   0  0  0  0  0  0  0  0  0  0  0  0
    9.6237    3.6540   17.8773 N   0  0  0  0  0  0  0  0  0  0  0  0
    7.8734    4.5502   16.5902 N   0  0  0  0  0  0  0  0  0  0  0  0
    7.4270    5.0608   15.4241 C   0  0  0  0  0  0  0  0  0  0  0  0
    6.1271    5.3956   15.3825 F   0  0  0  0  0  0  0  0  0  0  0  0
    8.1265    5.2754   14.2875 N   0  0  0  0  0  0  0  0  0  0  0  0
    9.4114    4.9193   14.4280 C   0  0  0  0  0  0  0  0  0  0  0  0
   10.5655    3.3825   17.9696 H   0  0  0  0  0  0  0  0  0  0  0  0
    9.0037    3.5456   18.6344 H   0  0  0  0  0  0  0  0  0  0  0  0
   20.7345    4.2583    8.8042 C   0  0  0  0  0  0  0  0  0  0  0  0
   20.4684    2.7479    8.7605 C   0  0  0  0  0  0  0  0  0  0  0  0
   21.7565    1.9197    8.6843 C   0  0  0  0  0  0  0  0  0  0  0  0
   21.6074    0.5247    9.2959 C   0  0  0  0  0  0  0  0  0  0  0  0
   20.2732    0.3649    9.8645 N   0  0  0  0  0  0  0  0  0  0  0  0
   20.1291    1.0623   10.5948 H   0  0  0  0  0  0  0  0  0  0  0  0
   20.1835   -0.5692   10.2641 H   0  0  0  0  0  0  0  0  0  0  0  0
   17.5503    7.8960    8.5735 C   0  0  0  0  0  0  0  0  0  0  0  0
   16.0717    8.0062    8.1963 C   0  0  0  0  0  0  0  0  0  0  0  0
   15.4261    9.2885    8.7314 C   0  0  0  0  0  0  0  0  0  0  0  0
   14.5627   10.0160    7.6916 C   0  0  0  0  0  0  0  0  0  0  0  0
   13.1174   10.2599    8.1319 C   0  0  0  0  0  0  0  0  0  0  0  0
   12.9799   11.7049    6.1981 N   0  0  0  0  0  0  0  0  0  0  0  0
   12.4885   11.4687    7.4621 C   0  0  0  0  0  0  0  0  0  0  0  0
   11.6447   12.1813    7.9987 O   0  0  0  0  0  0  0  0  0  0  0  0
   13.5947   11.0524    5.7911 H   0  0  0  0  0  0  0  0  0  0  0  0
   12.6101   12.9010    5.4474 C   0  0  0  0  0  0  0  0  0  0  0  0
   10.4390   13.9853    5.8622 N   0  0  0  0  0  0  0  0  0  0  0  0
   11.0743   12.9150    5.2757 C   0  0  0  0  0  0  0  0  0  0  0  0
   10.4928   12.0541    4.6224 O   0  0  0  0  0  0  0  0  0  0  0  0
   10.9583   14.5303    6.4966 H   0  0  0  0  0  0  0  0  0  0  0  0
    9.0430   14.3775    5.6135 C   0  0  0  0  0  0  0  0  0  0  0  0
    8.2930   14.7587    6.9150 C   0  0  0  0  0  0  0  0  0  0  0  0
    7.7902   13.7314    7.6629 N   0  0  0  0  0  0  0  0  0  0  0  0
    8.0444   15.9191    7.2343 O   0  0  0  0  0  0  0  0  0  0  0  0
    7.9853   12.7993    7.4130 H   0  0  0  0  0  0  0  0  0  0  0  0
    7.2330   13.9233    8.4514 H   0  0  0  0  0  0  0  0  0  0  0  0
    8.8027   15.4583    4.5460 C   0  0  0  0  0  0  0  0  0  0  0  0
   10.0229   16.2804    4.1236 C   0  0  0  0  0  0  0  0  0  0  0  0
    9.8345   17.7982    4.1055 C   0  0  0  0  0  0  0  0  0  0  0  0
    8.8827   18.2000    5.1320 N   0  0  0  0  0  0  0  0  0  0  0  0
    9.1141   18.0796    6.0813 H   0  0  0  0  0  0  0  0  0  0  0  0
    6.6685   18.8152    5.5734 N   0  0  0  0  0  0  0  0  0  0  0  0
    7.6860   18.7358    4.8012 C   0  0  0  0  0  0  0  0  0  0  0  0
    7.6850   19.1745    3.5251 N   0  0  0  0  0  0  0  0  0  0  0  0
    5.8338   19.2230    5.2475 H   0  0  0  0  0  0  0  0  0  0  0  0
    6.8759   19.5895    3.1479 H   0  0  0  0  0  0  0  0  0  0  0  0
    8.4934   19.0795    2.9713 H   0  0  0  0  0  0  0  0  0  0  0  0
   13.2385   14.1630    6.0479 C   0  0  0  0  0  0  0  0  0  0  0  0
   13.9968   15.0879    5.0861 C   0  0  0  0  0  0  0  0  0  0  0  0
   14.6424   14.3444    3.9186 C   0  0  0  0  0  0  0  0  0  0  0  0
   16.0743   14.5668    3.8642 N   0  0  0  0  0  0  0  0  0  0  0  0
   16.5085   14.6921    2.9895 H   0  0  0  0  0  0  0  0  0  0  0  0
   16.8277   14.6062    4.9876 C   0  0  0  0  0  0  0  0  0  0  0  0
   17.3803   15.6627    5.4589 N   0  0  0  0  0  0  0  0  0  0  0  0
   16.9155   13.3933    5.5675 N   0  0  0  0  0  0  0  0  0  0  0  0
   17.2801   16.5220    4.9890 H   0  0  0  0  0  0  0  0  0  0  0  0
   16.4685   12.6180    5.1572 H   0  0  0  0  0  0  0  0  0  0  0  0
   17.4266   13.2823    6.4015 H   0  0  0  0  0  0  0  0  0  0  0  0
 73 74  2  0
 74 75  1  0
 74 71  1  0
 71 70  1  0
 70 69  1  0
 69 68  1  0
 62 68  1  0
 62 58  1  0
 58 59  1  0
 59 60  2  0
 59 57  1  0
 57 79  1  0
 79 80  1  0
 80 81  1  0
 81 82  1  0
 82 84  1  0
 84 85  2  0
 84 86  1  0
 57 53  1  0
 53 54  1  0
 54 55  2  0
 54 52  1  0
 52 51  1  0
 51 50  1  0
 50 49  1  0
 49 48  1  0
 48  1  1  0
  1  2  1  0
  2  3  2  0
  2  5  1  0
  5 41  1  0
 41 42  1  0
 42 43  1  0
 43 44  1  0
 44 45  1  0
  5  6  1  0
  6  7  1  0
  7  8  2  0
  7 10  1  0
 10 11  1  0
 11 12  1  0
 12 13  1  0
 13 14  1  0
 14 15  1  0
 15 16  1  0
 16 17  2  0
 19 16  1  0
 19 20  1  0
 20 21  1  0
 21 28  1  0
 28 29  1  0
 29 30  2  0
 30 31  1  0
 31 32  2  0
 32 33  1  0
 32 34  1  0
 34 35  2  0
 35 36  1  0
 35 37  1  0
 37 38  2  0
 21 22  1  0
 22 23  1  0
 22 24  1  0
 24 25  1  0
 62 63  1  0
 63 64  1  0
 63 65  2  0
 24 19  1  0
 38 28  1  0
 38 31  1  0
 73 76  1  0
 75 77  1  0
 75 78  1  0
 71 72  1  0
 58 61  1  0
 82 83  1  0
 85 87  1  0
 86 88  1  0
 86 89  1  0
 53 56  1  0
  1  4  1  0
 45 46  1  0
 45 47  1  0
  6  9  1  0
 15 18  1  0
 33 39  1  0
 33 40  1  0
 23 26  1  0
 25 27  1  0
 64 66  1  0
 64 67  1  0
M  END
> <minimizedAffinity>
-6.95320

> <CNNscore>
0.2480159700

> <CNNaffinity>
6.7851214409

> <CNN_VS>
1.6828185320

> <CNNaffinity_variance>
3.1919143200

$$$$



 89 91  0  0  0  0  0  0  0  0999 V2000
   15.9334    6.8451    4.5745 N   0  0  0  0  0  0  0  0  0  0  0  0
   16.3091    6.0142    5.6067 C   0  0  0  0  0  0  0  0  0  0  0  0
   16.0289    6.2377    6.7851 O   0  0  0  0  0  0  0  0  0  0  0  0
   16.1890    6.6058    3.6543 H   0  0  0  0  0  0  0  0  0  0  0  0
   17.1070    4.7601    5.1835 C   0  0  0  0  0  0  0  0  0  0  0  0
   16.5254    3.6075    5.8663 N   0  0  0  0  0  0  0  0  0  0  0  0
   16.3823    2.3803    5.2722 C   0  0  0  0  0  0  0  0  0  0  0  0
   16.7665    2.1367    4.1334 O   0  0  0  0  0  0  0  0  0  0  0  0
   16.2220    3.7169    6.7965 H   0  0  0  0  0  0  0  0  0  0  0  0
   15.6785    1.3514    6.1396 C   0  0  0  0  0  0  0  0  0  0  0  0
   16.3185    1.2322    7.5239 C   0  0  0  0  0  0  0  0  0  0  0  0
   15.3938    1.7615    8.6233 C   0  0  0  0  0  0  0  0  0  0  0  0
   15.8852    3.0368    9.3206 C   0  0  0  0  0  0  0  0  0  0  0  0
   15.1844    3.3739   10.6389 C   0  0  0  0  0  0  0  0  0  0  0  0
   14.2288    4.4535   10.4831 N   0  0  0  0  0  0  0  0  0  0  0  0
   13.9153    5.3278   11.5054 C   0  0  0  0  0  0  0  0  0  0  0  0
   14.3863    5.2484   12.6358 O   0  0  0  0  0  0  0  0  0  0  0  0
   13.7848    4.5681    9.6119 H   0  0  0  0  0  0  0  0  0  0  0  0
   12.8897    6.3967   11.0977 C   0  0  0  0  0  0  0  0  0  0  0  0
   11.5290    5.9423   11.1500 O   0  0  0  0  0  0  0  0  0  0  0  0
   10.7290    6.9473   11.8052 C   0  0  0  0  0  0  0  0  0  0  0  0
   11.6057    8.1959   11.9440 C   0  0  0  0  0  0  0  0  0  0  0  0
   11.5568    8.9979   10.7384 O   0  0  0  0  0  0  0  0  0  0  0  0
   12.9994    7.6010   12.0257 C   0  0  0  0  0  0  0  0  0  0  0  0
   13.9970    8.5242   11.5818 O   0  0  0  0  0  0  0  0  0  0  0  0
   11.8217    8.4561    9.9787 H   0  0  0  0  0  0  0  0  0  0  0  0
   13.7962    8.8062   10.6756 H   0  0  0  0  0  0  0  0  0  0  0  0
   10.1574    6.3415   12.9918 N   0  0  0  0  0  0  0  0  0  0  0  0
   10.9195    5.7965   14.0013 C   0  0  0  0  0  0  0  0  0  0  0  0
   10.1815    5.2101   14.9193 N   0  0  0  0  0  0  0  0  0  0  0  0
    8.8862    5.4137   14.5080 C   0  0  0  0  0  0  0  0  0  0  0  0
    7.6511    5.0390   15.0638 C   0  0  0  0  0  0  0  0  0  0  0  0
    7.5411    4.3133   16.2429 N   0  0  0  0  0  0  0  0  0  0  0  0
    6.5186    5.4092   14.4327 N   0  0  0  0  0  0  0  0  0  0  0  0
    6.6226    6.1046   13.2815 C   0  0  0  0  0  0  0  0  0  0  0  0
    5.4670    6.4419   12.6862 F   0  0  0  0  0  0  0  0  0  0  0  0
    7.7486    6.5031   12.6487 N   0  0  0  0  0  0  0  0  0  0  0  0
    8.8470    6.1285   13.3201 C   0  0  0  0  0  0  0  0  0  0  0  0
    8.3519    4.0301   16.7242 H   0  0  0  0  0  0  0  0  0  0  0  0
    6.6522    4.0819   16.5974 H   0  0  0  0  0  0  0  0  0  0  0  0
   18.6159    4.9050    5.4459 C   0  0  0  0  0  0  0  0  0  0  0  0
   19.0755    6.3558    5.6406 C   0  0  0  0  0  0  0  0  0  0  0  0
   20.0895    6.5098    6.7803 C   0  0  0  0  0  0  0  0  0  0  0  0
   19.4987    7.1880    8.0186 C   0  0  0  0  0  0  0  0  0  0  0  0
   18.4350    8.1076    7.6289 N   0  0  0  0  0  0  0  0  0  0  0  0
   18.8147    8.8240    7.0100 H   0  0  0  0  0  0  0  0  0  0  0  0
   18.0454    8.5494    8.4617 H   0  0  0  0  0  0  0  0  0  0  0  0
   15.1761    8.0576    4.7964 C   0  0  0  0  0  0  0  0  0  0  0  0
   15.7820    9.2819    4.1071 C   0  0  0  0  0  0  0  0  0  0  0  0
   17.1930    9.5987    4.6130 C   0  0  0  0  0  0  0  0  0  0  0  0
   17.7099   10.9705    4.1581 C   0  0  0  0  0  0  0  0  0  0  0  0
   19.1475   10.9601    3.6334 C   0  0  0  0  0  0  0  0  0  0  0  0
   19.5441   13.2859    3.1043 N   0  0  0  0  0  0  0  0  0  0  0  0
   19.8983   12.2453    3.9331 C   0  0  0  0  0  0  0  0  0  0  0  0
   20.7537   12.3450    4.8084 O   0  0  0  0  0  0  0  0  0  0  0  0
   18.7952   13.1674    2.4764 H   0  0  0  0  0  0  0  0  0  0  0  0
   20.2540   14.5611    3.1356 C   0  0  0  0  0  0  0  0  0  0  0  0
   20.5188   15.7089    0.9738 N   0  0  0  0  0  0  0  0  0  0  0  0
   21.0162   14.7292    1.8018 C   0  0  0  0  0  0  0  0  0  0  0  0
   22.0137   14.0626    1.5432 O   0  0  0  0  0  0  0  0  0  0  0  0
   19.6300   16.0754    1.1860 H   0  0  0  0  0  0  0  0  0  0  0  0
   21.2136   16.2508   -0.2043 C   0  0  0  0  0  0  0  0  0  0  0  0
   20.3674   16.1352   -1.4975 C   0  0  0  0  0  0  0  0  0  0  0  0
   20.9659   15.5514   -2.5784 N   0  0  0  0  0  0  0  0  0  0  0  0
   19.2502   16.6328   -1.6185 O   0  0  0  0  0  0  0  0  0  0  0  0
   21.8607   15.1508   -2.4889 H   0  0  0  0  0  0  0  0  0  0  0  0
   20.5022   15.5314   -3.4467 H   0  0  0  0  0  0  0  0  0  0  0  0
   21.7789   17.6762   -0.0852 C   0  0  0  0  0  0  0  0  0  0  0  0
   21.6576   18.5621   -1.3275 C   0  0  0  0  0  0  0  0  0  0  0  0
   21.9605   20.0475   -1.1234 C   0  0  0  0  0  0  0  0  0  0  0  0
   20.7522   20.7585   -0.7290 N   0  0  0  0  0  0  0  0  0  0  0  0
   20.7266   21.2278    0.1360 H   0  0  0  0  0  0  0  0  0  0  0  0
   19.0133   19.7581   -1.9338 N   0  0  0  0  0  0  0  0  0  0  0  0
   19.6650   20.7839   -1.5327 C   0  0  0  0  0  0  0  0  0  0  0  0
   19.3484   22.0479   -1.8835 N   0  0  0  0  0  0  0  0  0  0  0  0
   18.2303   19.8706   -2.5199 H   0  0  0  0  0  0  0  0  0  0  0  0
   18.5753   22.2173   -2.4690 H   0  0  0  0  0  0  0  0  0  0  0  0
   19.8904   22.8007   -1.5538 H   0  0  0  0  0  0  0  0  0  0  0  0
   19.3292   15.7140    3.5400 C   0  0  0  0  0  0  0  0  0  0  0  0
   18.0490   15.3447    4.3017 C   0  0  0  0  0  0  0  0  0  0  0  0
   18.0316   15.8631    5.7382 C   0  0  0  0  0  0  0  0  0  0  0  0
   17.4258   17.1774    5.8292 N   0  0  0  0  0  0  0  0  0  0  0  0
   16.4520   17.2669    5.7158 H   0  0  0  0  0  0  0  0  0  0  0  0
   18.1679   18.2840    6.0664 C   0  0  0  0  0  0  0  0  0  0  0  0
   18.0888   19.3732    5.3949 N   0  0  0  0  0  0  0  0  0  0  0  0
   18.9968   18.1088    7.1139 N   0  0  0  0  0  0  0  0  0  0  0  0
   17.4626   19.4407    4.6382 H   0  0  0  0  0  0  0  0  0  0  0  0
   19.0124   17.2477    7.5908 H   0  0  0  0  0  0  0  0  0  0  0  0
   19.5870   18.8421    7.4025 H   0  0  0  0  0  0  0  0  0  0  0  0
 73 74  2  0
 74 75  1  0
 74 71  1  0
 71 70  1  0
 70 69  1  0
 69 68  1  0
 62 68  1  0
 62 58  1  0
 58 59  1  0
 59 60  2  0
 59 57  1  0
 57 79  1  0
 79 80  1  0
 80 81  1  0
 81 82  1  0
 82 84  1  0
 84 85  2  0
 84 86  1  0
 57 53  1  0
 53 54  1  0
 54 55  2  0
 54 52  1  0
 52 51  1  0
 51 50  1  0
 50 49  1  0
 49 48  1  0
 48  1  1  0
  1  2  1  0
  2  3  2  0
  2  5  1  0
  5 41  1  0
 41 42  1  0
 42 43  1  0
 43 44  1  0
 44 45  1  0
  5  6  1  0
  6  7  1  0
  7  8  2  0
  7 10  1  0
 10 11  1  0
 11 12  1  0
 12 13  1  0
 13 14  1  0
 14 15  1  0
 15 16  1  0
 16 17  2  0
 19 16  1  0
 19 20  1  0
 20 21  1  0
 21 28  1  0
 28 29  1  0
 29 30  2  0
 30 31  1  0
 31 32  2  0
 32 33  1  0
 32 34  1  0
 34 35  2  0
 35 36  1  0
 35 37  1  0
 37 38  2  0
 21 22  1  0
 22 23  1  0
 22 24  1  0
 24 25  1  0
 62 63  1  0
 63 64  1  0
 63 65  2  0
 24 19  1  0
 38 28  1  0
 38 31  1  0
 73 76  1  0
 75 77  1  0
 75 78  1  0
 71 72  1  0
 58 61  1  0
 82 83  1  0
 85 87  1  0
 86 88  1  0
 86 89  1  0
 53 56  1  0
  1  4  1  0
 45 46  1  0
 45 47  1  0
  6  9  1  0
 15 18  1  0
 33 39  1  0
 33 40  1  0
 23 26  1  0
 25 27  1  0
 64 66  1  0
 64 67  1  0
M  END
> <minimizedAffinity>
-6.61358

> <CNNscore>
0.2477090210

> <CNNaffinity>
6.5519695282

> <CNN_VS>
1.6229819059

> <CNNaffinity_variance>
1.3029174805

$$$$



 89 91  0  0  0  0  0  0  0  0999 V2000
   18.9601    7.0489    4.4252 N   0  0  0  0  0  0  0  0  0  0  0  0
   19.0333    6.1032    5.4239 C   0  0  0  0  0  0  0  0  0  0  0  0
   19.7328    6.2397    6.4284 O   0  0  0  0  0  0  0  0  0  0  0  0
   18.3789    6.8771    3.6494 H   0  0  0  0  0  0  0  0  0  0  0  0
   18.1603    4.8469    5.2044 C   0  0  0  0  0  0  0  0  0  0  0  0
   16.7685    5.2795    5.1099 N   0  0  0  0  0  0  0  0  0  0  0  0
   15.9883    5.0521    4.0058 C   0  0  0  0  0  0  0  0  0  0  0  0
   16.3800    4.4325    3.0228 O   0  0  0  0  0  0  0  0  0  0  0  0
   16.3723    5.7565    5.8745 H   0  0  0  0  0  0  0  0  0  0  0  0
   14.5996    5.6606    4.0938 C   0  0  0  0  0  0  0  0  0  0  0  0
   14.6480    7.1740    4.3114 C   0  0  0  0  0  0  0  0  0  0  0  0
   13.2500    7.7613    4.5220 C   0  0  0  0  0  0  0  0  0  0  0  0
   12.3201    6.9140    5.4003 C   0  0  0  0  0  0  0  0  0  0  0  0
   11.4966    7.6956    6.4266 C   0  0  0  0  0  0  0  0  0  0  0  0
   12.1599    7.7631    7.7145 N   0  0  0  0  0  0  0  0  0  0  0  0
   11.8380    8.7043    8.6728 C   0  0  0  0  0  0  0  0  0  0  0  0
   10.9949    9.5808    8.5083 O   0  0  0  0  0  0  0  0  0  0  0  0
   12.8695    7.1106    7.9141 H   0  0  0  0  0  0  0  0  0  0  0  0
   12.6646    8.5674    9.9607 C   0  0  0  0  0  0  0  0  0  0  0  0
   11.9516    8.9440   11.1483 O   0  0  0  0  0  0  0  0  0  0  0  0
   12.1762    7.9429   12.1615 C   0  0  0  0  0  0  0  0  0  0  0  0
   13.2885    7.0252   11.6442 C   0  0  0  0  0  0  0  0  0  0  0  0
   14.5943    7.5730   11.9505 O   0  0  0  0  0  0  0  0  0  0  0  0
   13.1084    7.1202   10.1403 C   0  0  0  0  0  0  0  0  0  0  0  0
   14.3260    6.8477    9.4421 O   0  0  0  0  0  0  0  0  0  0  0  0
   14.6650    8.4667   11.5800 H   0  0  0  0  0  0  0  0  0  0  0  0
   15.0161    7.4585    9.7449 H   0  0  0  0  0  0  0  0  0  0  0  0
   10.8868    7.3768   12.5058 N   0  0  0  0  0  0  0  0  0  0  0  0
   10.7128    6.0559   12.8554 C   0  0  0  0  0  0  0  0  0  0  0  0
    9.4439    5.7484   13.0182 N   0  0  0  0  0  0  0  0  0  0  0  0
    8.7691    6.9255   12.8008 C   0  0  0  0  0  0  0  0  0  0  0  0
    7.4018    7.2481   12.8359 C   0  0  0  0  0  0  0  0  0  0  0  0
    6.4114    6.3158   13.1173 N   0  0  0  0  0  0  0  0  0  0  0  0
    7.0312    8.5224   12.5976 N   0  0  0  0  0  0  0  0  0  0  0  0
    7.9900    9.4277   12.3131 C   0  0  0  0  0  0  0  0  0  0  0  0
    7.5701   10.6808   12.0743 F   0  0  0  0  0  0  0  0  0  0  0  0
    9.3249    9.2297   12.2354 N   0  0  0  0  0  0  0  0  0  0  0  0
    9.6474    7.9547   12.4962 C   0  0  0  0  0  0  0  0  0  0  0  0
    6.6540    5.3784   13.2951 H   0  0  0  0  0  0  0  0  0  0  0  0
    5.4668    6.5924   13.1388 H   0  0  0  0  0  0  0  0  0  0  0  0
   18.3769    3.7810    6.2922 C   0  0  0  0  0  0  0  0  0  0  0  0
   17.1145    3.4534    7.1004 C   0  0  0  0  0  0  0  0  0  0  0  0
   16.6008    2.0308    6.8490 C   0  0  0  0  0  0  0  0  0  0  0  0
   16.4799    1.6930    5.3613 C   0  0  0  0  0  0  0  0  0  0  0  0
   15.3914    0.7451    5.1476 N   0  0  0  0  0  0  0  0  0  0  0  0
   15.5807   -0.1126    5.6663 H   0  0  0  0  0  0  0  0  0  0  0  0
   15.3168    0.5315    4.1530 H   0  0  0  0  0  0  0  0  0  0  0  0
   19.7083    8.2860    4.4775 C   0  0  0  0  0  0  0  0  0  0  0  0
   18.8501    9.4944    4.8573 C   0  0  0  0  0  0  0  0  0  0  0  0
   19.6798   10.7716    5.0230 C   0  0  0  0  0  0  0  0  0  0  0  0
   19.2800   11.8889    4.0494 C   0  0  0  0  0  0  0  0  0  0  0  0
   19.9011   13.2516    4.3645 C   0  0  0  0  0  0  0  0  0  0  0  0
   19.4580   15.6231    4.2026 N   0  0  0  0  0  0  0  0  0  0  0  0
   19.2315   14.3951    3.6232 C   0  0  0  0  0  0  0  0  0  0  0  0
   18.5369   14.2424    2.6222 O   0  0  0  0  0  0  0  0  0  0  0  0
   20.0890   15.6910    4.9552 H   0  0  0  0  0  0  0  0  0  0  0  0
   18.7836   16.8270    3.7260 C   0  0  0  0  0  0  0  0  0  0  0  0
   20.7140   17.4315    2.3228 N   0  0  0  0  0  0  0  0  0  0  0  0
   19.3590   17.1932    2.3393 C   0  0  0  0  0  0  0  0  0  0  0  0
   18.6524   17.2167    1.3361 O   0  0  0  0  0  0  0  0  0  0  0  0
   21.1653   17.5505    3.1896 H   0  0  0  0  0  0  0  0  0  0  0  0
   21.5399   17.5222    1.1087 C   0  0  0  0  0  0  0  0  0  0  0  0
   22.0758   16.1419    0.6512 C   0  0  0  0  0  0  0  0  0  0  0  0
   22.9349   16.1331   -0.4115 N   0  0  0  0  0  0  0  0  0  0  0  0
   21.6837   15.0768    1.1226 O   0  0  0  0  0  0  0  0  0  0  0  0
   23.2531   16.9825   -0.7943 H   0  0  0  0  0  0  0  0  0  0  0  0
   23.2357   15.2774   -0.7943 H   0  0  0  0  0  0  0  0  0  0  0  0
   20.9308   18.2620   -0.0944 C   0  0  0  0  0  0  0  0  0  0  0  0
   20.9882   19.7910   -0.0529 C   0  0  0  0  0  0  0  0  0  0  0  0
   20.3168   20.5187   -1.2188 C   0  0  0  0  0  0  0  0  0  0  0  0
   19.4393   21.5682   -0.7194 N   0  0  0  0  0  0  0  0  0  0  0  0
   19.2775   21.6448    0.2486 H   0  0  0  0  0  0  0  0  0  0  0  0
   18.3561   23.5766   -1.2383 N   0  0  0  0  0  0  0  0  0  0  0  0
   18.8435   22.4392   -1.5650 C   0  0  0  0  0  0  0  0  0  0  0  0
   18.8085   21.9505   -2.8223 N   0  0  0  0  0  0  0  0  0  0  0  0
   17.9387   24.1483   -1.9226 H   0  0  0  0  0  0  0  0  0  0  0  0
   18.4014   22.4805   -3.5453 H   0  0  0  0  0  0  0  0  0  0  0  0
   19.1900   21.0640   -3.0167 H   0  0  0  0  0  0  0  0  0  0  0  0
   17.2596   16.6955    3.8166 C   0  0  0  0  0  0  0  0  0  0  0  0
   16.5657   17.4263    4.9741 C   0  0  0  0  0  0  0  0  0  0  0  0
   17.3909   17.4399    6.2592 C   0  0  0  0  0  0  0  0  0  0  0  0
   17.3131   18.7201    6.9358 N   0  0  0  0  0  0  0  0  0  0  0  0
   17.0072   19.5107    6.4351 H   0  0  0  0  0  0  0  0  0  0  0  0
   17.6511   18.8535    8.2393 C   0  0  0  0  0  0  0  0  0  0  0  0
   17.0477   18.2765    9.2122 N   0  0  0  0  0  0  0  0  0  0  0  0
   18.7190   19.6602    8.3937 N   0  0  0  0  0  0  0  0  0  0  0  0
   16.2714   17.6973    9.0359 H   0  0  0  0  0  0  0  0  0  0  0  0
   19.1402   20.0754    7.6066 H   0  0  0  0  0  0  0  0  0  0  0  0
   19.0781   19.8347    9.2936 H   0  0  0  0  0  0  0  0  0  0  0  0
 73 74  2  0
 74 75  1  0
 74 71  1  0
 71 70  1  0
 70 69  1  0
 69 68  1  0
 62 68  1  0
 62 58  1  0
 58 59  1  0
 59 60  2  0
 59 57  1  0
 57 79  1  0
 79 80  1  0
 80 81  1  0
 81 82  1  0
 82 84  1  0
 84 85  2  0
 84 86  1  0
 57 53  1  0
 53 54  1  0
 54 55  2  0
 54 52  1  0
 52 51  1  0
 51 50  1  0
 50 49  1  0
 49 48  1  0
 48  1  1  0
  1  2  1  0
  2  3  2  0
  2  5  1  0
  5 41  1  0
 41 42  1  0
 42 43  1  0
 43 44  1  0
 44 45  1  0
  5  6  1  0
  6  7  1  0
  7  8  2  0
  7 10  1  0
 10 11  1  0
 11 12  1  0
 12 13  1  0
 13 14  1  0
 14 15  1  0
 15 16  1  0
 16 17  2  0
 19 16  1  0
 19 20  1  0
 20 21  1  0
 21 28  1  0
 28 29  1  0
 29 30  2  0
 30 31  1  0
 31 32  2  0
 32 33  1  0
 32 34  1  0
 34 35  2  0
 35 36  1  0
 35 37  1  0
 37 38  2  0
 21 22  1  0
 22 23  1  0
 22 24  1  0
 24 25  1  0
 62 63  1  0
 63 64  1  0
 63 65  2  0
 24 19  1  0
 38 28  1  0
 38 31  1  0
 73 76  1  0
 75 77  1  0
 75 78  1  0
 71 72  1  0
 58 61  1  0
 82 83  1  0
 85 87  1  0
 86 88  1  0
 86 89  1  0
 53 56  1  0
  1  4  1  0
 45 46  1  0
 45 47  1  0
  6  9  1  0
 15 18  1  0
 33 39  1  0
 33 40  1  0
 23 26  1  0
 25 27  1  0
 64 66  1  0
 64 67  1  0
M  END
> <minimizedAffinity>
-6.61295

> <CNNscore>
0.2320490181

> <CNNaffinity>
6.3123688698

> <CNN_VS>
1.4647790194

> <CNNaffinity_variance>
1.9282671213

$$$$



 89 91  0  0  0  0  0  0  0  0999 V2000
   13.7669    2.1066    7.9179 N   0  0  0  0  0  0  0  0  0  0  0  0
   12.4720    2.5670    7.8274 C   0  0  0  0  0  0  0  0  0  0  0  0
   11.5038    1.8224    7.6690 O   0  0  0  0  0  0  0  0  0  0  0  0
   14.4949    2.7568    8.0466 H   0  0  0  0  0  0  0  0  0  0  0  0
   12.3093    4.0990    7.9499 C   0  0  0  0  0  0  0  0  0  0  0  0
   13.1691    4.5552    9.0388 N   0  0  0  0  0  0  0  0  0  0  0  0
   13.6569    5.8338    9.1207 C   0  0  0  0  0  0  0  0  0  0  0  0
   13.3804    6.7113    8.3100 O   0  0  0  0  0  0  0  0  0  0  0  0
   13.4095    3.9148    9.7468 H   0  0  0  0  0  0  0  0  0  0  0  0
   14.5960    6.0637   10.2919 C   0  0  0  0  0  0  0  0  0  0  0  0
   13.8416    6.1969   11.6161 C   0  0  0  0  0  0  0  0  0  0  0  0
   13.2911    7.6114   11.8149 C   0  0  0  0  0  0  0  0  0  0  0  0
   11.8116    7.7852   11.4475 C   0  0  0  0  0  0  0  0  0  0  0  0
   10.9355    8.4104   12.5357 C   0  0  0  0  0  0  0  0  0  0  0  0
    9.6720    7.7134   12.6801 N   0  0  0  0  0  0  0  0  0  0  0  0
    8.4613    8.3719   12.7726 C   0  0  0  0  0  0  0  0  0  0  0  0
    8.3510    9.5941   12.7764 O   0  0  0  0  0  0  0  0  0  0  0  0
    9.6774    6.7295   12.7135 H   0  0  0  0  0  0  0  0  0  0  0  0
    7.2612    7.4215   12.9034 C   0  0  0  0  0  0  0  0  0  0  0  0
    7.6214    6.0320   12.9051 O   0  0  0  0  0  0  0  0  0  0  0  0
    6.9063    5.3685   13.9670 C   0  0  0  0  0  0  0  0  0  0  0  0
    5.8624    6.3601   14.4904 C   0  0  0  0  0  0  0  0  0  0  0  0
    4.6533    6.3055   13.6940 O   0  0  0  0  0  0  0  0  0  0  0  0
    6.5210    7.6976   14.2070 C   0  0  0  0  0  0  0  0  0  0  0  0
    5.5566    8.7429   14.0589 O   0  0  0  0  0  0  0  0  0  0  0  0
    4.8712    6.4716   12.7635 H   0  0  0  0  0  0  0  0  0  0  0  0
    4.9335    8.5102   13.3529 H   0  0  0  0  0  0  0  0  0  0  0  0
    7.8919    4.8227   14.8792 N   0  0  0  0  0  0  0  0  0  0  0  0
    7.6649    4.6667   16.2287 C   0  0  0  0  0  0  0  0  0  0  0  0
    8.7389    4.2562   16.8687 N   0  0  0  0  0  0  0  0  0  0  0  0
    9.6916    4.1050   15.8900 C   0  0  0  0  0  0  0  0  0  0  0  0
   11.0327    3.6878   15.9370 C   0  0  0  0  0  0  0  0  0  0  0  0
   11.6745    3.3353   17.1173 N   0  0  0  0  0  0  0  0  0  0  0  0
   11.7281    3.6139   14.7842 N   0  0  0  0  0  0  0  0  0  0  0  0
   11.1107    3.9661   13.6378 C   0  0  0  0  0  0  0  0  0  0  0  0
   11.8477    3.8843   12.5181 F   0  0  0  0  0  0  0  0  0  0  0  0
    9.8393    4.3955   13.4751 N   0  0  0  0  0  0  0  0  0  0  0  0
    9.1825    4.4365   14.6432 C   0  0  0  0  0  0  0  0  0  0  0  0
   11.1903    3.3801   17.9733 H   0  0  0  0  0  0  0  0  0  0  0  0
   12.6137    3.0407   17.0978 H   0  0  0  0  0  0  0  0  0  0  0  0
   10.8423    4.5232    8.1357 C   0  0  0  0  0  0  0  0  0  0  0  0
   10.4550    4.7951    9.5952 C   0  0  0  0  0  0  0  0  0  0  0  0
    9.2558    5.7416    9.7251 C   0  0  0  0  0  0  0  0  0  0  0  0
    9.1207    6.7014    8.5407 C   0  0  0  0  0  0  0  0  0  0  0  0
   10.2315    7.6475    8.5309 N   0  0  0  0  0  0  0  0  0  0  0  0
   10.2253    8.1880    9.3959 H   0  0  0  0  0  0  0  0  0  0  0  0
   10.1340    8.2781    7.7352 H   0  0  0  0  0  0  0  0  0  0  0  0
   14.0939    0.7000    7.8302 C   0  0  0  0  0  0  0  0  0  0  0  0
   15.5569    0.4425    7.4641 C   0  0  0  0  0  0  0  0  0  0  0  0
   16.3286    1.7382    7.1941 C   0  0  0  0  0  0  0  0  0  0  0  0
   16.5909    1.9920    5.7032 C   0  0  0  0  0  0  0  0  0  0  0  0
   16.5687    3.4687    5.3018 C   0  0  0  0  0  0  0  0  0  0  0  0
   18.9353    3.9089    5.5296 N   0  0  0  0  0  0  0  0  0  0  0  0
   17.6777    4.2773    5.9511 C   0  0  0  0  0  0  0  0  0  0  0  0
   17.4796    5.1550    6.7867 O   0  0  0  0  0  0  0  0  0  0  0  0
   19.0256    3.2555    4.7987 H   0  0  0  0  0  0  0  0  0  0  0  0
   20.1381    4.4653    6.1419 C   0  0  0  0  0  0  0  0  0  0  0  0
   19.6848    6.8219    5.5923 N   0  0  0  0  0  0  0  0  0  0  0  0
   20.5241    5.7527    5.3792 C   0  0  0  0  0  0  0  0  0  0  0  0
   21.5320    5.8084    4.6811 O   0  0  0  0  0  0  0  0  0  0  0  0
   18.8216    6.6420    6.0302 H   0  0  0  0  0  0  0  0  0  0  0  0
   19.9788    8.2134    5.2158 C   0  0  0  0  0  0  0  0  0  0  0  0
   18.7035    9.0910    5.1452 C   0  0  0  0  0  0  0  0  0  0  0  0
   18.1983    9.3493    3.9020 N   0  0  0  0  0  0  0  0  0  0  0  0
   18.2072    9.6388    6.1270 O   0  0  0  0  0  0  0  0  0  0  0  0
   18.5908    8.9141    3.1110 H   0  0  0  0  0  0  0  0  0  0  0  0
   17.4418    9.9706    3.7974 H   0  0  0  0  0  0  0  0  0  0  0  0
   21.0602    8.9420    6.0315 C   0  0  0  0  0  0  0  0  0  0  0  0
   22.2833    9.4337    5.2534 C   0  0  0  0  0  0  0  0  0  0  0  0
   22.3355    9.0486    3.7740 C   0  0  0  0  0  0  0  0  0  0  0  0
   23.5096    8.2290    3.5080 N   0  0  0  0  0  0  0  0  0  0  0  0
   23.5034    7.2772    3.7596 H   0  0  0  0  0  0  0  0  0  0  0  0
   25.5432    9.3867    3.5245 N   0  0  0  0  0  0  0  0  0  0  0  0
   24.6081    8.7551    2.9206 C   0  0  0  0  0  0  0  0  0  0  0  0
   24.5957    8.5443    1.5878 N   0  0  0  0  0  0  0  0  0  0  0  0
   26.3094    9.7370    3.0150 H   0  0  0  0  0  0  0  0  0  0  0  0
   25.3369    8.8746    1.0302 H   0  0  0  0  0  0  0  0  0  0  0  0
   23.8456    8.0602    1.1729 H   0  0  0  0  0  0  0  0  0  0  0  0
   19.9921    4.5935    7.6619 C   0  0  0  0  0  0  0  0  0  0  0  0
   20.4728    3.4078    8.5095 C   0  0  0  0  0  0  0  0  0  0  0  0
   19.3299    2.5507    9.0497 C   0  0  0  0  0  0  0  0  0  0  0  0
   19.7823    1.6382   10.0819 N   0  0  0  0  0  0  0  0  0  0  0  0
   20.0361    1.9967   10.9630 H   0  0  0  0  0  0  0  0  0  0  0  0
   19.8638    0.3054    9.8624 C   0  0  0  0  0  0  0  0  0  0  0  0
   20.9599   -0.3523    9.7652 N   0  0  0  0  0  0  0  0  0  0  0  0
   18.6428   -0.2571    9.7735 N   0  0  0  0  0  0  0  0  0  0  0  0
   21.8230    0.1156    9.8387 H   0  0  0  0  0  0  0  0  0  0  0  0
   17.8363    0.3013    9.8563 H   0  0  0  0  0  0  0  0  0  0  0  0
   18.5572   -1.2267    9.6258 H   0  0  0  0  0  0  0  0  0  0  0  0
 73 74  2  0
 74 75  1  0
 74 71  1  0
 71 70  1  0
 70 69  1  0
 69 68  1  0
 62 68  1  0
 62 58  1  0
 58 59  1  0
 59 60  2  0
 59 57  1  0
 57 79  1  0
 79 80  1  0
 80 81  1  0
 81 82  1  0
 82 84  1  0
 84 85  2  0
 84 86  1  0
 57 53  1  0
 53 54  1  0
 54 55  2  0
 54 52  1  0
 52 51  1  0
 51 50  1  0
 50 49  1  0
 49 48  1  0
 48  1  1  0
  1  2  1  0
  2  3  2  0
  2  5  1  0
  5 41  1  0
 41 42  1  0
 42 43  1  0
 43 44  1  0
 44 45  1  0
  5  6  1  0
  6  7  1  0
  7  8  2  0
  7 10  1  0
 10 11  1  0
 11 12  1  0
 12 13  1  0
 13 14  1  0
 14 15  1  0
 15 16  1  0
 16 17  2  0
 19 16  1  0
 19 20  1  0
 20 21  1  0
 21 28  1  0
 28 29  1  0
 29 30  2  0
 30 31  1  0
 31 32  2  0
 32 33  1  0
 32 34  1  0
 34 35  2  0
 35 36  1  0
 35 37  1  0
 37 38  2  0
 21 22  1  0
 22 23  1  0
 22 24  1  0
 24 25  1  0
 62 63  1  0
 63 64  1  0
 63 65  2  0
 24 19  1  0
 38 28  1  0
 38 31  1  0
 73 76  1  0
 75 77  1  0
 75 78  1  0
 71 72  1  0
 58 61  1  0
 82 83  1  0
 85 87  1  0
 86 88  1  0
 86 89  1  0
 53 56  1  0
  1  4  1  0
 45 46  1  0
 45 47  1  0
  6  9  1  0
 15 18  1  0
 33 39  1  0
 33 40  1  0
 23 26  1  0
 25 27  1  0
 64 66  1  0
 64 67  1  0
M  END
> <minimizedAffinity>
-7.59349

> <CNNscore>
0.2124294490

> <CNNaffinity>
8.0301866531

> <CNN_VS>
1.7058480978

> <CNNaffinity_variance>
2.4456932545

$$$$



 89 91  0  0  0  0  0  0  0  0999 V2000
   17.5485    2.9305    6.4102 N   0  0  0  0  0  0  0  0  0  0  0  0
   17.7458    4.1588    7.0013 C   0  0  0  0  0  0  0  0  0  0  0  0
   16.9600    5.0989    6.8755 O   0  0  0  0  0  0  0  0  0  0  0  0
   18.2159    2.2211    6.5537 H   0  0  0  0  0  0  0  0  0  0  0  0
   19.0296    4.2794    7.8531 C   0  0  0  0  0  0  0  0  0  0  0  0
   19.9433    5.1843    7.1607 N   0  0  0  0  0  0  0  0  0  0  0  0
   20.2741    5.0446    5.8376 C   0  0  0  0  0  0  0  0  0  0  0  0
   19.8005    4.1741    5.1154 O   0  0  0  0  0  0  0  0  0  0  0  0
   20.3401    5.9291    7.6676 H   0  0  0  0  0  0  0  0  0  0  0  0
   21.3035    6.0481    5.3481 C   0  0  0  0  0  0  0  0  0  0  0  0
   22.0706    5.5358    4.1277 C   0  0  0  0  0  0  0  0  0  0  0  0
   23.4547    6.1804    4.0166 C   0  0  0  0  0  0  0  0  0  0  0  0
   23.4731    7.7038    4.1984 C   0  0  0  0  0  0  0  0  0  0  0  0
   22.5549    8.4869    3.2570 C   0  0  0  0  0  0  0  0  0  0  0  0
   21.8351    9.5365    3.9524 N   0  0  0  0  0  0  0  0  0  0  0  0
   22.0468   10.8787    3.7045 C   0  0  0  0  0  0  0  0  0  0  0  0
   22.8794   11.2995    2.9072 O   0  0  0  0  0  0  0  0  0  0  0  0
   21.1676    9.2816    4.6296 H   0  0  0  0  0  0  0  0  0  0  0  0
   21.1565   11.8008    4.5517 C   0  0  0  0  0  0  0  0  0  0  0  0
   21.2377   13.1848    4.1795 O   0  0  0  0  0  0  0  0  0  0  0  0
   19.9028   13.7256    4.1092 C   0  0  0  0  0  0  0  0  0  0  0  0
   18.9632   12.6760    4.7113 C   0  0  0  0  0  0  0  0  0  0  0  0
   18.8989   12.8066    6.1528 O   0  0  0  0  0  0  0  0  0  0  0  0
   19.6974   11.3814    4.4148 C   0  0  0  0  0  0  0  0  0  0  0  0
   19.3518   10.3509    5.3438 O   0  0  0  0  0  0  0  0  0  0  0  0
   19.7930   12.7426    6.5234 H   0  0  0  0  0  0  0  0  0  0  0  0
   19.5389   10.6532    6.2463 H   0  0  0  0  0  0  0  0  0  0  0  0
   19.6887   14.1779    2.7487 N   0  0  0  0  0  0  0  0  0  0  0  0
   18.8815   13.5136    1.8519 C   0  0  0  0  0  0  0  0  0  0  0  0
   18.9279   14.0490    0.6508 N   0  0  0  0  0  0  0  0  0  0  0  0
   19.7713   15.1260    0.7815 C   0  0  0  0  0  0  0  0  0  0  0  0
   20.2138   16.0931   -0.1370 C   0  0  0  0  0  0  0  0  0  0  0  0
   19.8296   16.1007   -1.4718 N   0  0  0  0  0  0  0  0  0  0  0  0
   21.0398   17.0668    0.2961 N   0  0  0  0  0  0  0  0  0  0  0  0
   21.4235   17.0557    1.5893 C   0  0  0  0  0  0  0  0  0  0  0  0
   22.2535   18.0404    1.9699 F   0  0  0  0  0  0  0  0  0  0  0  0
   21.0778   16.1724    2.5524 N   0  0  0  0  0  0  0  0  0  0  0  0
   20.2437   15.2345    2.0809 C   0  0  0  0  0  0  0  0  0  0  0  0
   19.2271   15.4015   -1.8146 H   0  0  0  0  0  0  0  0  0  0  0  0
   20.1597   16.8051   -2.0751 H   0  0  0  0  0  0  0  0  0  0  0  0
   19.6664    2.9124    8.1567 C   0  0  0  0  0  0  0  0  0  0  0  0
   21.1967    2.9500    8.2612 C   0  0  0  0  0  0  0  0  0  0  0  0
   21.7861    1.6496    8.8204 C   0  0  0  0  0  0  0  0  0  0  0  0
   20.7356    0.7511    9.4772 C   0  0  0  0  0  0  0  0  0  0  0  0
   21.3603   -0.4677    9.9807 N   0  0  0  0  0  0  0  0  0  0  0  0
   21.7901   -0.9742    9.2066 H   0  0  0  0  0  0  0  0  0  0  0  0
   20.6525   -1.0558   10.4205 H   0  0  0  0  0  0  0  0  0  0  0  0
   16.3938    2.6472    5.5858 C   0  0  0  0  0  0  0  0  0  0  0  0
   16.0100    1.1662    5.5738 C   0  0  0  0  0  0  0  0  0  0  0  0
   15.8150    0.6015    6.9846 C   0  0  0  0  0  0  0  0  0  0  0  0
   14.3922    0.7943    7.5271 C   0  0  0  0  0  0  0  0  0  0  0  0
   14.1995    2.0688    8.3522 C   0  0  0  0  0  0  0  0  0  0  0  0
   12.6036    3.7536    9.0313 N   0  0  0  0  0  0  0  0  0  0  0  0
   12.7743    2.5911    8.3140 C   0  0  0  0  0  0  0  0  0  0  0  0
   11.8579    2.0245    7.7251 O   0  0  0  0  0  0  0  0  0  0  0  0
   13.3916    4.2032    9.4136 H   0  0  0  0  0  0  0  0  0  0  0  0
   11.2804    4.3346    9.2380 C   0  0  0  0  0  0  0  0  0  0  0  0
   10.3239    4.4107   11.5052 N   0  0  0  0  0  0  0  0  0  0  0  0
   11.2404    4.9712   10.6456 C   0  0  0  0  0  0  0  0  0  0  0  0
   12.0087    5.8734   10.9650 O   0  0  0  0  0  0  0  0  0  0  0  0
    9.6457    3.8109   11.1187 H   0  0  0  0  0  0  0  0  0  0  0  0
   10.2801    4.6393   12.9579 C   0  0  0  0  0  0  0  0  0  0  0  0
   11.4380    3.9304   13.7053 C   0  0  0  0  0  0  0  0  0  0  0  0
   11.1406    2.7533   14.3324 N   0  0  0  0  0  0  0  0  0  0  0  0
   12.5537    4.4266   13.8448 O   0  0  0  0  0  0  0  0  0  0  0  0
   10.2489    2.3501   14.2252 H   0  0  0  0  0  0  0  0  0  0  0  0
   11.8180    2.3085   14.8914 H   0  0  0  0  0  0  0  0  0  0  0  0
   10.1806    6.0996   13.4305 C   0  0  0  0  0  0  0  0  0  0  0  0
    8.7758    6.7056   13.4761 C   0  0  0  0  0  0  0  0  0  0  0  0
    7.6470    5.7514   13.8700 C   0  0  0  0  0  0  0  0  0  0  0  0
    6.4619    6.0134   13.0651 N   0  0  0  0  0  0  0  0  0  0  0  0
    5.5768    6.0273   13.4959 H   0  0  0  0  0  0  0  0  0  0  0  0
    7.5760    5.9663   11.0077 N   0  0  0  0  0  0  0  0  0  0  0  0
    6.5586    6.2380   11.7351 C   0  0  0  0  0  0  0  0  0  0  0  0
    5.4346    6.8100   11.2550 N   0  0  0  0  0  0  0  0  0  0  0  0
    7.5588    6.1648   10.0436 H   0  0  0  0  0  0  0  0  0  0  0  0
    5.3647    7.0307   10.2981 H   0  0  0  0  0  0  0  0  0  0  0  0
    4.6846    7.0066   11.8616 H   0  0  0  0  0  0  0  0  0  0  0  0
   10.8708    5.2392    8.0709 C   0  0  0  0  0  0  0  0  0  0  0  0
   11.8414    6.3652    7.6895 C   0  0  0  0  0  0  0  0  0  0  0  0
   12.6521    6.0616    6.4312 C   0  0  0  0  0  0  0  0  0  0  0  0
   11.9544    6.4734    5.2286 N   0  0  0  0  0  0  0  0  0  0  0  0
   10.9707    6.5130    5.2331 H   0  0  0  0  0  0  0  0  0  0  0  0
   12.6239    6.8044    4.1001 C   0  0  0  0  0  0  0  0  0  0  0  0
   12.4761    6.2232    2.9670 N   0  0  0  0  0  0  0  0  0  0  0  0
   13.4611    7.8395    4.3069 N   0  0  0  0  0  0  0  0  0  0  0  0
   11.8478    5.4705    2.8781 H   0  0  0  0  0  0  0  0  0  0  0  0
   13.5311    8.2449    5.2013 H   0  0  0  0  0  0  0  0  0  0  0  0
   14.0029    8.1905    3.5635 H   0  0  0  0  0  0  0  0  0  0  0  0
 73 74  2  0
 74 75  1  0
 74 71  1  0
 71 70  1  0
 70 69  1  0
 69 68  1  0
 62 68  1  0
 62 58  1  0
 58 59  1  0
 59 60  2  0
 59 57  1  0
 57 79  1  0
 79 80  1  0
 80 81  1  0
 81 82  1  0
 82 84  1  0
 84 85  2  0
 84 86  1  0
 57 53  1  0
 53 54  1  0
 54 55  2  0
 54 52  1  0
 52 51  1  0
 51 50  1  0
 50 49  1  0
 49 48  1  0
 48  1  1  0
  1  2  1  0
  2  3  2  0
  2  5  1  0
  5 41  1  0
 41 42  1  0
 42 43  1  0
 43 44  1  0
 44 45  1  0
  5  6  1  0
  6  7  1  0
  7  8  2  0
  7 10  1  0
 10 11  1  0
 11 12  1  0
 12 13  1  0
 13 14  1  0
 14 15  1  0
 15 16  1  0
 16 17  2  0
 19 16  1  0
 19 20  1  0
 20 21  1  0
 21 28  1  0
 28 29  1  0
 29 30  2  0
 30 31  1  0
 31 32  2  0
 32 33  1  0
 32 34  1  0
 34 35  2  0
 35 36  1  0
 35 37  1  0
 37 38  2  0
 21 22  1  0
 22 23  1  0
 22 24  1  0
 24 25  1  0
 62 63  1  0
 63 64  1  0
 63 65  2  0
 24 19  1  0
 38 28  1  0
 38 31  1  0
 73 76  1  0
 75 77  1  0
 75 78  1  0
 71 72  1  0
 58 61  1  0
 82 83  1  0
 85 87  1  0
 86 88  1  0
 86 89  1  0
 53 56  1  0
  1  4  1  0
 45 46  1  0
 45 47  1  0
  6  9  1  0
 15 18  1  0
 33 39  1  0
 33 40  1  0
 23 26  1  0
 25 27  1  0
 64 66  1  0
 64 67  1  0
M  END
> <minimizedAffinity>
-6.76577

> <CNNscore>
0.2067437768

> <CNNaffinity>
6.7338271141

> <CNN_VS>
1.3921768665

> <CNNaffinity_variance>
1.8656433821

$$$$
