


 40 43  0  0  0  0  0  0  0  0999 V2000
   34.7554  -28.0063   -2.2019 C   0  0  0  0  0  0  0  0  0  0  0  0
   33.4407  -27.5047   -2.0981 C   0  0  0  0  0  0  0  0  0  0  0  0
   32.5453  -27.9759   -1.1246 C   0  0  0  0  0  0  0  0  0  0  0  0
   31.2285  -27.4930   -1.0379 C   0  0  0  0  0  0  0  0  0  0  0  0
   30.3483  -27.9889   -0.0729 C   0  0  0  0  0  0  0  0  0  0  0  0
   30.7734  -28.9674    0.8188 C   0  0  0  0  0  0  0  0  0  0  0  0
   32.0827  -29.4505    0.7484 C   0  0  0  0  0  0  0  0  0  0  0  0
   32.9771  -28.9626   -0.2180 C   0  0  0  0  0  0  0  0  0  0  0  0
   34.2984  -29.4298   -0.2952 C   0  0  0  0  0  0  0  0  0  0  0  0
   35.2145  -28.9485   -1.2573 C   0  0  0  0  0  0  0  0  0  0  0  0
   36.2965  -26.3530   -3.1423 N   0  0  0  0  0  0  0  0  0  0  0  0
   35.6059  -27.5359   -3.3444 C   0  0  0  0  0  0  0  0  0  0  0  0
   35.6633  -28.1427   -4.4077 O   0  0  0  0  0  0  0  0  0  0  0  0
   36.1297  -25.8288   -2.3259 H   0  0  0  0  0  0  0  0  0  0  0  0
   37.2604  -25.8734   -4.1116 C   0  0  0  0  0  0  0  0  0  0  0  0
   38.4270  -21.8053   -3.2116 C   0  0  0  0  0  0  0  0  0  0  0  0
   38.1644  -22.7101   -2.1842 C   0  0  0  0  0  0  0  0  0  0  0  0
   37.7980  -24.0268   -2.4800 C   0  0  0  0  0  0  0  0  0  0  0  0
   37.6860  -24.4600   -3.8079 C   0  0  0  0  0  0  0  0  0  0  0  0
   37.9349  -23.5428   -4.8390 C   0  0  0  0  0  0  0  0  0  0  0  0
   38.3067  -22.2282   -4.5390 C   0  0  0  0  0  0  0  0  0  0  0  0
   40.1983  -20.2370   -2.9800 C   0  0  0  0  0  0  0  0  0  0  0  0
   38.8006  -20.4973   -3.0531 O   0  0  0  0  0  0  0  0  0  0  0  0
   36.6401  -29.4779   -1.1921 C   0  0  0  0  0  0  0  0  0  0  0  0
   36.7500  -30.9450   -1.3467 N   0  0  0  0  0  0  0  0  0  0  0  0
   37.0174  -31.6258   -0.0776 C   0  0  0  0  0  0  0  0  0  0  0  0
   35.5352  -31.4814   -1.9912 C   0  0  0  0  0  0  0  0  0  0  0  0
   34.9584  -32.7042   -1.2901 C   0  0  0  0  0  0  0  0  0  0  0  0
   34.0382  -32.5219   -0.2395 C   0  0  0  0  0  0  0  0  0  0  0  0
   33.5160  -33.6248    0.4447 C   0  0  0  0  0  0  0  0  0  0  0  0
   32.4101  -33.3749    1.7398 Cl  0  0  0  0  0  0  0  0  0  0  0  0
   33.8924  -34.9213    0.1020 C   0  0  0  0  0  0  0  0  0  0  0  0
   34.8021  -35.1176   -0.9388 C   0  0  0  0  0  0  0  0  0  0  0  0
   35.3104  -34.0245   -1.6535 C   0  0  0  0  0  0  0  0  0  0  0  0
   36.2740  -34.2752   -2.7406 C   0  0  0  0  0  0  0  0  0  0  0  0
   36.0299  -34.2722   -3.9338 O   0  0  0  0  0  0  0  0  0  0  0  0
   37.4701  -34.5791   -2.2085 O   0  0  0  0  0  0  0  0  0  0  0  0
   37.5876  -34.5612   -1.2791 H   0  0  0  0  0  0  0  0  0  0  0  0
   35.1313  -36.4017   -1.2930 O   0  0  0  0  0  0  0  0  0  0  0  0
   35.9085  -37.0173   -0.2621 C   0  0  0  0  0  0  0  0  0  0  0  0
 22 23  1  0
 23 16  1  0
 16 17  2  0
 17 18  1  0
 18 19  2  0
 19 15  1  0
 15 11  1  0
 11 12  1  0
 12 13  2  0
 12  1  1  0
  1  2  2  0
  2  3  1  0
  3  4  2  0
  4  5  1  0
  5  6  2  0
  6  7  1  0
  7  8  2  0
  8  9  1  0
  9 10  2  0
 10 24  1  0
 24 25  1  0
 25 26  1  0
 25 27  1  0
 27 28  1  0
 28 29  2  0
 29 30  1  0
 30 31  1  0
 30 32  2  0
 32 33  1  0
 33 39  1  0
 39 40  1  0
 33 34  2  0
 34 35  1  0
 35 36  2  0
 35 37  1  0
 19 20  1  0
 20 21  2  0
 21 16  1  0
 10  1  1  0
 34 28  1  0
  8  3  1  0
 11 14  1  0
 37 38  1  0
M  END
> <minimizedAffinity>
-8.02491

> <CNNscore>
0.5666734576

> <CNNaffinity>
6.1624717712

> <CNN_VS>
3.4921092987

> <CNNaffinity_variance>
0.3684876859

$$$$



 40 43  0  0  0  0  0  0  0  0999 V2000
   34.5747  -27.9478   -2.4996 C   0  0  0  0  0  0  0  0  0  0  0  0
   33.2420  -27.5263   -2.3071 C   0  0  0  0  0  0  0  0  0  0  0  0
   32.4672  -27.9942   -1.2337 C   0  0  0  0  0  0  0  0  0  0  0  0
   31.1322  -27.5924   -1.0571 C   0  0  0  0  0  0  0  0  0  0  0  0
   30.3735  -28.0844    0.0079 C   0  0  0  0  0  0  0  0  0  0  0  0
   30.9395  -28.9778    0.9107 C   0  0  0  0  0  0  0  0  0  0  0  0
   32.2684  -29.3792    0.7509 C   0  0  0  0  0  0  0  0  0  0  0  0
   33.0417  -28.8944   -0.3163 C   0  0  0  0  0  0  0  0  0  0  0  0
   34.3808  -29.2796   -0.4847 C   0  0  0  0  0  0  0  0  0  0  0  0
   35.1765  -28.7996   -1.5492 C   0  0  0  0  0  0  0  0  0  0  0  0
   35.0293  -28.2141   -4.8902 N   0  0  0  0  0  0  0  0  0  0  0  0
   35.2905  -27.4938   -3.7370 C   0  0  0  0  0  0  0  0  0  0  0  0
   36.0857  -26.5612   -3.7253 O   0  0  0  0  0  0  0  0  0  0  0  0
   34.4837  -29.0318   -4.8367 H   0  0  0  0  0  0  0  0  0  0  0  0
   35.5448  -27.7851   -6.1743 C   0  0  0  0  0  0  0  0  0  0  0  0
   38.1308  -30.7828   -7.9197 C   0  0  0  0  0  0  0  0  0  0  0  0
   37.5399  -29.8054   -8.7191 C   0  0  0  0  0  0  0  0  0  0  0  0
   36.7134  -28.8324   -8.1489 C   0  0  0  0  0  0  0  0  0  0  0  0
   36.4622  -28.8215   -6.7703 C   0  0  0  0  0  0  0  0  0  0  0  0
   37.0449  -29.8159   -5.9716 C   0  0  0  0  0  0  0  0  0  0  0  0
   37.8757  -30.7841   -6.5450 C   0  0  0  0  0  0  0  0  0  0  0  0
   38.6379  -32.3829   -9.6030 C   0  0  0  0  0  0  0  0  0  0  0  0
   38.9622  -31.7805   -8.3545 O   0  0  0  0  0  0  0  0  0  0  0  0
   36.6356  -29.2314   -1.5819 C   0  0  0  0  0  0  0  0  0  0  0  0
   36.8334  -30.6901   -1.7283 N   0  0  0  0  0  0  0  0  0  0  0  0
   37.3130  -31.3193   -0.4955 C   0  0  0  0  0  0  0  0  0  0  0  0
   35.5886  -31.3278   -2.2003 C   0  0  0  0  0  0  0  0  0  0  0  0
   35.2231  -32.5959   -1.4401 C   0  0  0  0  0  0  0  0  0  0  0  0
   34.4189  -32.4972   -0.2881 C   0  0  0  0  0  0  0  0  0  0  0  0
   34.0935  -33.6407    0.4491 C   0  0  0  0  0  0  0  0  0  0  0  0
   33.1277  -33.4911    1.8661 Cl  0  0  0  0  0  0  0  0  0  0  0  0
   34.5547  -34.8962    0.0605 C   0  0  0  0  0  0  0  0  0  0  0  0
   35.3511  -35.0097   -1.0806 C   0  0  0  0  0  0  0  0  0  0  0  0
   35.6603  -33.8776   -1.8466 C   0  0  0  0  0  0  0  0  0  0  0  0
   36.5100  -34.0404   -3.0403 C   0  0  0  0  0  0  0  0  0  0  0  0
   36.1338  -34.3614   -4.1533 O   0  0  0  0  0  0  0  0  0  0  0  0
   37.7945  -33.8435   -2.6976 O   0  0  0  0  0  0  0  0  0  0  0  0
   38.0128  -33.5970   -1.8203 H   0  0  0  0  0  0  0  0  0  0  0  0
   35.7633  -36.2577   -1.4752 O   0  0  0  0  0  0  0  0  0  0  0  0
   36.5982  -36.8446   -0.4731 C   0  0  0  0  0  0  0  0  0  0  0  0
 22 23  1  0
 23 16  1  0
 16 17  2  0
 17 18  1  0
 18 19  2  0
 19 15  1  0
 15 11  1  0
 11 12  1  0
 12 13  2  0
 12  1  1  0
  1  2  2  0
  2  3  1  0
  3  4  2  0
  4  5  1  0
  5  6  2  0
  6  7  1  0
  7  8  2  0
  8  9  1  0
  9 10  2  0
 10 24  1  0
 24 25  1  0
 25 26  1  0
 25 27  1  0
 27 28  1  0
 28 29  2  0
 29 30  1  0
 30 31  1  0
 30 32  2  0
 32 33  1  0
 33 39  1  0
 39 40  1  0
 33 34  2  0
 34 35  1  0
 35 36  2  0
 35 37  1  0
 19 20  1  0
 20 21  2  0
 21 16  1  0
 10  1  1  0
 34 28  1  0
  8  3  1  0
 11 14  1  0
 37 38  1  0
M  END
> <minimizedAffinity>
-7.32734

> <CNNscore>
0.4885567725

> <CNNaffinity>
6.1019454002

> <CNN_VS>
2.9811468124

> <CNNaffinity_variance>
0.4496615231

$$$$



 40 43  0  0  0  0  0  0  0  0999 V2000
   34.7854  -34.6148   -0.6183 C   0  0  0  0  0  0  0  0  0  0  0  0
   35.5031  -35.8163   -0.4397 C   0  0  0  0  0  0  0  0  0  0  0  0
   36.8253  -35.9606   -0.8898 C   0  0  0  0  0  0  0  0  0  0  0  0
   37.5307  -37.1658   -0.7331 C   0  0  0  0  0  0  0  0  0  0  0  0
   38.8396  -37.2935   -1.2046 C   0  0  0  0  0  0  0  0  0  0  0  0
   39.4604  -36.2193   -1.8324 C   0  0  0  0  0  0  0  0  0  0  0  0
   38.7729  -35.0128   -1.9874 C   0  0  0  0  0  0  0  0  0  0  0  0
   37.4561  -34.8714   -1.5204 C   0  0  0  0  0  0  0  0  0  0  0  0
   36.7556  -33.6631   -1.6590 C   0  0  0  0  0  0  0  0  0  0  0  0
   35.4321  -33.4996   -1.1920 C   0  0  0  0  0  0  0  0  0  0  0  0
   33.0788  -34.7768    1.1293 N   0  0  0  0  0  0  0  0  0  0  0  0
   33.3405  -34.5853   -0.2167 C   0  0  0  0  0  0  0  0  0  0  0  0
   32.4395  -34.4335   -1.0337 O   0  0  0  0  0  0  0  0  0  0  0  0
   33.8155  -35.0198    1.7356 H   0  0  0  0  0  0  0  0  0  0  0  0
   31.7398  -34.6257    1.6611 C   0  0  0  0  0  0  0  0  0  0  0  0
   30.7084  -37.9017    4.2925 C   0  0  0  0  0  0  0  0  0  0  0  0
   30.0544  -36.6752    4.3992 C   0  0  0  0  0  0  0  0  0  0  0  0
   30.3838  -35.6227    3.5395 C   0  0  0  0  0  0  0  0  0  0  0  0
   31.3740  -35.7783    2.5602 C   0  0  0  0  0  0  0  0  0  0  0  0
   32.0412  -37.0081    2.4665 C   0  0  0  0  0  0  0  0  0  0  0  0
   31.7049  -38.0602    3.3245 C   0  0  0  0  0  0  0  0  0  0  0  0
   31.4489  -40.0416    5.0155 C   0  0  0  0  0  0  0  0  0  0  0  0
   30.4722  -39.0071    5.0657 O   0  0  0  0  0  0  0  0  0  0  0  0
   34.8058  -32.1196   -1.3330 C   0  0  0  0  0  0  0  0  0  0  0  0
   35.7412  -31.0742   -1.8027 N   0  0  0  0  0  0  0  0  0  0  0  0
   35.6730  -30.8681   -3.2514 C   0  0  0  0  0  0  0  0  0  0  0  0
   35.5013  -29.8123   -1.0752 C   0  0  0  0  0  0  0  0  0  0  0  0
   34.0431  -29.5912   -0.6957 C   0  0  0  0  0  0  0  0  0  0  0  0
   33.4650  -30.3969    0.3046 C   0  0  0  0  0  0  0  0  0  0  0  0
   32.1192  -30.2389    0.6519 C   0  0  0  0  0  0  0  0  0  0  0  0
   31.4300  -31.2510    1.8617 Cl  0  0  0  0  0  0  0  0  0  0  0  0
   31.3257  -29.2846    0.0196 C   0  0  0  0  0  0  0  0  0  0  0  0
   31.8856  -28.4773   -0.9723 C   0  0  0  0  0  0  0  0  0  0  0  0
   33.2400  -28.6027   -1.3098 C   0  0  0  0  0  0  0  0  0  0  0  0
   33.7898  -27.7356   -2.3677 C   0  0  0  0  0  0  0  0  0  0  0  0
   34.0189  -28.0613   -3.5186 O   0  0  0  0  0  0  0  0  0  0  0  0
   34.0685  -26.5281   -1.8477 O   0  0  0  0  0  0  0  0  0  0  0  0
   33.8645  -26.3454   -0.9516 H   0  0  0  0  0  0  0  0  0  0  0  0
   31.1034  -27.5132   -1.5569 O   0  0  0  0  0  0  0  0  0  0  0  0
   30.1695  -26.9894   -0.6086 C   0  0  0  0  0  0  0  0  0  0  0  0
 22 23  1  0
 23 16  1  0
 16 17  2  0
 17 18  1  0
 18 19  2  0
 19 15  1  0
 15 11  1  0
 11 12  1  0
 12 13  2  0
 12  1  1  0
  1  2  2  0
  2  3  1  0
  3  4  2  0
  4  5  1  0
  5  6  2  0
  6  7  1  0
  7  8  2  0
  8  9  1  0
  9 10  2  0
 10 24  1  0
 24 25  1  0
 25 26  1  0
 25 27  1  0
 27 28  1  0
 28 29  2  0
 29 30  1  0
 30 31  1  0
 30 32  2  0
 32 33  1  0
 33 39  1  0
 39 40  1  0
 33 34  2  0
 34 35  1  0
 35 36  2  0
 35 37  1  0
 19 20  1  0
 20 21  2  0
 21 16  1  0
 10  1  1  0
 34 28  1  0
  8  3  1  0
 11 14  1  0
 37 38  1  0
M  END
> <minimizedAffinity>
-7.62570

> <CNNscore>
0.4828531146

> <CNNaffinity>
6.2184624672

> <CNN_VS>
3.0026040077

> <CNNaffinity_variance>
0.2445105314

$$$$



 40 43  0  0  0  0  0  0  0  0999 V2000
   31.8218  -33.4360    1.2948 C   0  0  0  0  0  0  0  0  0  0  0  0
   30.8706  -32.3962    1.2257 C   0  0  0  0  0  0  0  0  0  0  0  0
   31.2388  -31.0783    0.9109 C   0  0  0  0  0  0  0  0  0  0  0  0
   30.2941  -30.0389    0.8664 C   0  0  0  0  0  0  0  0  0  0  0  0
   30.6851  -28.7310    0.5687 C   0  0  0  0  0  0  0  0  0  0  0  0
   32.0209  -28.4470    0.3072 C   0  0  0  0  0  0  0  0  0  0  0  0
   32.9690  -29.4730    0.3404 C   0  0  0  0  0  0  0  0  0  0  0  0
   32.5903  -30.7914    0.6406 C   0  0  0  0  0  0  0  0  0  0  0  0
   33.5287  -31.8349    0.6677 C   0  0  0  0  0  0  0  0  0  0  0  0
   33.1668  -33.1684    0.9631 C   0  0  0  0  0  0  0  0  0  0  0  0
   31.3266  -34.9844    3.1251 N   0  0  0  0  0  0  0  0  0  0  0  0
   31.3627  -34.7878    1.7551 C   0  0  0  0  0  0  0  0  0  0  0  0
   31.0672  -35.6793    0.9676 O   0  0  0  0  0  0  0  0  0  0  0  0
   31.6889  -34.2912    3.7231 H   0  0  0  0  0  0  0  0  0  0  0  0
   30.7649  -36.1925    3.6940 C   0  0  0  0  0  0  0  0  0  0  0  0
   33.9073  -38.9375    4.8391 C   0  0  0  0  0  0  0  0  0  0  0  0
   33.4410  -37.9802    5.7388 C   0  0  0  0  0  0  0  0  0  0  0  0
   32.4180  -37.1022    5.3678 C   0  0  0  0  0  0  0  0  0  0  0  0
   31.8455  -37.1653    4.0902 C   0  0  0  0  0  0  0  0  0  0  0  0
   32.3282  -38.1186    3.1822 C   0  0  0  0  0  0  0  0  0  0  0  0
   33.3478  -38.9988    3.5591 C   0  0  0  0  0  0  0  0  0  0  0  0
   35.7978  -40.1205    4.0162 C   0  0  0  0  0  0  0  0  0  0  0  0
   34.8937  -39.8555    5.0835 O   0  0  0  0  0  0  0  0  0  0  0  0
   34.2614  -34.2233    0.8878 C   0  0  0  0  0  0  0  0  0  0  0  0
   34.5225  -34.7301   -0.4773 N   0  0  0  0  0  0  0  0  0  0  0  0
   33.5550  -34.2307   -1.4573 C   0  0  0  0  0  0  0  0  0  0  0  0
   35.9045  -34.4083   -0.8841 C   0  0  0  0  0  0  0  0  0  0  0  0
   36.2158  -32.9176   -0.8712 C   0  0  0  0  0  0  0  0  0  0  0  0
   35.5275  -32.0654   -1.7565 C   0  0  0  0  0  0  0  0  0  0  0  0
   35.8150  -30.6968   -1.7903 C   0  0  0  0  0  0  0  0  0  0  0  0
   34.9758  -29.6798   -2.8968 Cl  0  0  0  0  0  0  0  0  0  0  0  0
   36.7831  -30.1496   -0.9516 C   0  0  0  0  0  0  0  0  0  0  0  0
   37.4722  -30.9817   -0.0673 C   0  0  0  0  0  0  0  0  0  0  0  0
   37.1739  -32.3493   -0.0003 C   0  0  0  0  0  0  0  0  0  0  0  0
   37.9298  -33.1939    0.9424 C   0  0  0  0  0  0  0  0  0  0  0  0
   37.8604  -33.1560    2.1577 O   0  0  0  0  0  0  0  0  0  0  0  0
   38.7721  -33.9811    0.2516 O   0  0  0  0  0  0  0  0  0  0  0  0
   38.7718  -33.9591   -0.6852 H   0  0  0  0  0  0  0  0  0  0  0  0
   38.3931  -30.4221    0.7823 O   0  0  0  0  0  0  0  0  0  0  0  0
   39.0041  -29.2824    0.1711 C   0  0  0  0  0  0  0  0  0  0  0  0
 22 23  1  0
 23 16  1  0
 16 17  2  0
 17 18  1  0
 18 19  2  0
 19 15  1  0
 15 11  1  0
 11 12  1  0
 12 13  2  0
 12  1  1  0
  1  2  2  0
  2  3  1  0
  3  4  2  0
  4  5  1  0
  5  6  2  0
  6  7  1  0
  7  8  2  0
  8  9  1  0
  9 10  2  0
 10 24  1  0
 24 25  1  0
 25 26  1  0
 25 27  1  0
 27 28  1  0
 28 29  2  0
 29 30  1  0
 30 31  1  0
 30 32  2  0
 32 33  1  0
 33 39  1  0
 39 40  1  0
 33 34  2  0
 34 35  1  0
 35 36  2  0
 35 37  1  0
 19 20  1  0
 20 21  2  0
 21 16  1  0
 10  1  1  0
 34 28  1  0
  8  3  1  0
 11 14  1  0
 37 38  1  0
M  END
> <minimizedAffinity>
-8.05104

> <CNNscore>
0.4642741978

> <CNNaffinity>
5.4857935905

> <CNN_VS>
2.5469124317

> <CNNaffinity_variance>
0.8291728497

$$$$



 40 43  0  0  0  0  0  0  0  0999 V2000
   31.7708  -33.5635    1.1948 C   0  0  0  0  0  0  0  0  0  0  0  0
   30.9088  -32.4483    1.2597 C   0  0  0  0  0  0  0  0  0  0  0  0
   31.3174  -31.1734    0.8363 C   0  0  0  0  0  0  0  0  0  0  0  0
   30.4662  -30.0588    0.9242 C   0  0  0  0  0  0  0  0  0  0  0  0
   30.8995  -28.7955    0.5140 C   0  0  0  0  0  0  0  0  0  0  0  0
   32.1838  -28.6316    0.0070 C   0  0  0  0  0  0  0  0  0  0  0  0
   33.0374  -29.7333   -0.0931 C   0  0  0  0  0  0  0  0  0  0  0  0
   32.6158  -31.0082    0.3178 C   0  0  0  0  0  0  0  0  0  0  0  0
   33.4573  -32.1267    0.2140 C   0  0  0  0  0  0  0  0  0  0  0  0
   33.0501  -33.4181    0.6178 C   0  0  0  0  0  0  0  0  0  0  0  0
   31.4485  -35.0042    3.1475 N   0  0  0  0  0  0  0  0  0  0  0  0
   31.2968  -34.8612    1.7788 C   0  0  0  0  0  0  0  0  0  0  0  0
   30.8321  -35.7578    1.0842 O   0  0  0  0  0  0  0  0  0  0  0  0
   31.9386  -34.3171    3.6543 H   0  0  0  0  0  0  0  0  0  0  0  0
   30.8985  -36.1476    3.8468 C   0  0  0  0  0  0  0  0  0  0  0  0
   33.9114  -39.1349    4.6940 C   0  0  0  0  0  0  0  0  0  0  0  0
   33.2569  -39.1189    3.4632 C   0  0  0  0  0  0  0  0  0  0  0  0
   32.2915  -38.1450    3.1901 C   0  0  0  0  0  0  0  0  0  0  0  0
   31.9628  -37.1722    4.1437 C   0  0  0  0  0  0  0  0  0  0  0  0
   32.6113  -37.2013    5.3867 C   0  0  0  0  0  0  0  0  0  0  0  0
   33.5806  -38.1736    5.6540 C   0  0  0  0  0  0  0  0  0  0  0  0
   36.1424  -39.9139    4.4359 C   0  0  0  0  0  0  0  0  0  0  0  0
   34.8769  -40.0272    5.0780 O   0  0  0  0  0  0  0  0  0  0  0  0
   34.0252  -34.5636    0.3857 C   0  0  0  0  0  0  0  0  0  0  0  0
   33.9993  -35.1134   -0.9873 N   0  0  0  0  0  0  0  0  0  0  0  0
   32.7174  -34.8880   -1.6595 C   0  0  0  0  0  0  0  0  0  0  0  0
   35.1173  -34.5618   -1.7778 C   0  0  0  0  0  0  0  0  0  0  0  0
   36.3353  -34.1921   -0.9417 C   0  0  0  0  0  0  0  0  0  0  0  0
   36.5815  -32.8362   -0.6505 C   0  0  0  0  0  0  0  0  0  0  0  0
   37.7097  -32.4634    0.0877 C   0  0  0  0  0  0  0  0  0  0  0  0
   38.0005  -30.7979    0.4113 Cl  0  0  0  0  0  0  0  0  0  0  0  0
   38.6093  -33.4211    0.5498 C   0  0  0  0  0  0  0  0  0  0  0  0
   38.3773  -34.7692    0.2706 C   0  0  0  0  0  0  0  0  0  0  0  0
   37.2355  -35.1609   -0.4414 C   0  0  0  0  0  0  0  0  0  0  0  0
   37.0319  -36.5940   -0.7208 C   0  0  0  0  0  0  0  0  0  0  0  0
   37.2084  -37.1511   -1.7894 O   0  0  0  0  0  0  0  0  0  0  0  0
   36.5497  -37.1941    0.3808 O   0  0  0  0  0  0  0  0  0  0  0  0
   36.4392  -36.7034    1.1713 H   0  0  0  0  0  0  0  0  0  0  0  0
   39.2491  -35.7049    0.7680 O   0  0  0  0  0  0  0  0  0  0  0  0
   40.4170  -35.0664    1.2915 C   0  0  0  0  0  0  0  0  0  0  0  0
 22 23  1  0
 23 16  1  0
 16 17  2  0
 17 18  1  0
 18 19  2  0
 19 15  1  0
 15 11  1  0
 11 12  1  0
 12 13  2  0
 12  1  1  0
  1  2  2  0
  2  3  1  0
  3  4  2  0
  4  5  1  0
  5  6  2  0
  6  7  1  0
  7  8  2  0
  8  9  1  0
  9 10  2  0
 10 24  1  0
 24 25  1  0
 25 26  1  0
 25 27  1  0
 27 28  1  0
 28 29  2  0
 29 30  1  0
 30 31  1  0
 30 32  2  0
 32 33  1  0
 33 39  1  0
 39 40  1  0
 33 34  2  0
 34 35  1  0
 35 36  2  0
 35 37  1  0
 19 20  1  0
 20 21  2  0
 21 16  1  0
 10  1  1  0
 34 28  1  0
  8  3  1  0
 11 14  1  0
 37 38  1  0
M  END
> <minimizedAffinity>
-8.29265

> <CNNscore>
0.3108491004

> <CNNaffinity>
5.8525586128

> <CNN_VS>
1.8192626238

> <CNNaffinity_variance>
0.3402816355

$$$$



 40 43  0  0  0  0  0  0  0  0999 V2000
   34.7771  -29.1219   -1.8792 C   0  0  0  0  0  0  0  0  0  0  0  0
   33.5830  -28.4101   -1.6378 C   0  0  0  0  0  0  0  0  0  0  0  0
   32.6196  -28.8714   -0.7265 C   0  0  0  0  0  0  0  0  0  0  0  0
   31.4198  -28.1742   -0.5050 C   0  0  0  0  0  0  0  0  0  0  0  0
   30.4666  -28.6607    0.3931 C   0  0  0  0  0  0  0  0  0  0  0  0
   30.7021  -29.8445    1.0835 C   0  0  0  0  0  0  0  0  0  0  0  0
   31.8947  -30.5433    0.8784 C   0  0  0  0  0  0  0  0  0  0  0  0
   32.8602  -30.0670   -0.0231 C   0  0  0  0  0  0  0  0  0  0  0  0
   34.0675  -30.7515   -0.2326 C   0  0  0  0  0  0  0  0  0  0  0  0
   35.0532  -30.2864   -1.1317 C   0  0  0  0  0  0  0  0  0  0  0  0
   35.8808  -27.2518   -3.0094 N   0  0  0  0  0  0  0  0  0  0  0  0
   35.6952  -28.6227   -2.9552 C   0  0  0  0  0  0  0  0  0  0  0  0
   36.2263  -29.3779   -3.7615 O   0  0  0  0  0  0  0  0  0  0  0  0
   35.3426  -26.6674   -2.4280 H   0  0  0  0  0  0  0  0  0  0  0  0
   36.8532  -26.6623   -3.9070 C   0  0  0  0  0  0  0  0  0  0  0  0
   39.5888  -24.1174   -1.7253 C   0  0  0  0  0  0  0  0  0  0  0  0
   39.8528  -25.4783   -1.8726 C   0  0  0  0  0  0  0  0  0  0  0  0
   38.9711  -26.2947   -2.5876 C   0  0  0  0  0  0  0  0  0  0  0  0
   37.8097  -25.7645   -3.1654 C   0  0  0  0  0  0  0  0  0  0  0  0
   37.5389  -24.3985   -3.0013 C   0  0  0  0  0  0  0  0  0  0  0  0
   38.4263  -23.5840   -2.2902 C   0  0  0  0  0  0  0  0  0  0  0  0
   40.4762  -23.3775    0.3521 C   0  0  0  0  0  0  0  0  0  0  0  0
   40.3742  -23.2151   -1.0585 O   0  0  0  0  0  0  0  0  0  0  0  0
   36.3518  -31.0758   -1.2161 C   0  0  0  0  0  0  0  0  0  0  0  0
   36.1816  -32.4782   -1.6552 N   0  0  0  0  0  0  0  0  0  0  0  0
   35.0631  -32.6442   -2.5863 C   0  0  0  0  0  0  0  0  0  0  0  0
   37.4388  -32.9846   -2.2401 C   0  0  0  0  0  0  0  0  0  0  0  0
   37.3137  -33.3937   -3.7017 C   0  0  0  0  0  0  0  0  0  0  0  0
   37.2296  -32.3931   -4.6893 C   0  0  0  0  0  0  0  0  0  0  0  0
   37.0817  -32.7379   -6.0369 C   0  0  0  0  0  0  0  0  0  0  0  0
   36.9586  -31.4962   -7.2226 Cl  0  0  0  0  0  0  0  0  0  0  0  0
   37.0160  -34.0727   -6.4294 C   0  0  0  0  0  0  0  0  0  0  0  0
   37.1001  -35.0757   -5.4618 C   0  0  0  0  0  0  0  0  0  0  0  0
   37.2792  -34.7466   -4.1113 C   0  0  0  0  0  0  0  0  0  0  0  0
   37.3561  -35.8359   -3.1209 C   0  0  0  0  0  0  0  0  0  0  0  0
   36.4616  -36.1972   -2.3775 O   0  0  0  0  0  0  0  0  0  0  0  0
   38.6030  -36.3372   -3.1125 O   0  0  0  0  0  0  0  0  0  0  0  0
   39.2430  -36.0115   -3.7143 H   0  0  0  0  0  0  0  0  0  0  0  0
   37.0763  -36.3864   -5.8672 O   0  0  0  0  0  0  0  0  0  0  0  0
   36.7088  -36.4726   -7.2468 C   0  0  0  0  0  0  0  0  0  0  0  0
 22 23  1  0
 23 16  1  0
 16 17  2  0
 17 18  1  0
 18 19  2  0
 19 15  1  0
 15 11  1  0
 11 12  1  0
 12 13  2  0
 12  1  1  0
  1  2  2  0
  2  3  1  0
  3  4  2  0
  4  5  1  0
  5  6  2  0
  6  7  1  0
  7  8  2  0
  8  9  1  0
  9 10  2  0
 10 24  1  0
 24 25  1  0
 25 26  1  0
 25 27  1  0
 27 28  1  0
 28 29  2  0
 29 30  1  0
 30 31  1  0
 30 32  2  0
 32 33  1  0
 33 39  1  0
 39 40  1  0
 33 34  2  0
 34 35  1  0
 35 36  2  0
 35 37  1  0
 19 20  1  0
 20 21  2  0
 21 16  1  0
 10  1  1  0
 34 28  1  0
  8  3  1  0
 11 14  1  0
 37 38  1  0
M  END
> <minimizedAffinity>
-6.68081

> <CNNscore>
0.3094679117

> <CNNaffinity>
5.6404681206

> <CNN_VS>
1.7455438375

> <CNNaffinity_variance>
0.1371975541

$$$$



 40 43  0  0  0  0  0  0  0  0999 V2000
   31.6625  -33.5511    1.1436 C   0  0  0  0  0  0  0  0  0  0  0  0
   30.8706  -32.3918    1.2839 C   0  0  0  0  0  0  0  0  0  0  0  0
   31.3074  -31.1390    0.8243 C   0  0  0  0  0  0  0  0  0  0  0  0
   30.5283  -29.9809    0.9865 C   0  0  0  0  0  0  0  0  0  0  0  0
   30.9901  -28.7410    0.5378 C   0  0  0  0  0  0  0  0  0  0  0  0
   32.2311  -28.6440   -0.0819 C   0  0  0  0  0  0  0  0  0  0  0  0
   33.0123  -29.7894   -0.2566 C   0  0  0  0  0  0  0  0  0  0  0  0
   32.5613  -31.0414    0.1918 C   0  0  0  0  0  0  0  0  0  0  0  0
   33.3293  -32.2029    0.0146 C   0  0  0  0  0  0  0  0  0  0  0  0
   32.8913  -33.4721    0.4546 C   0  0  0  0  0  0  0  0  0  0  0  0
   31.4132  -34.9667    3.1252 N   0  0  0  0  0  0  0  0  0  0  0  0
   31.1738  -34.8239    1.7691 C   0  0  0  0  0  0  0  0  0  0  0  0
   30.6236  -35.7025    1.1152 O   0  0  0  0  0  0  0  0  0  0  0  0
   31.9666  -34.2994    3.5917 H   0  0  0  0  0  0  0  0  0  0  0  0
   30.8634  -36.0813    3.8697 C   0  0  0  0  0  0  0  0  0  0  0  0
   33.7893  -39.2033    4.5118 C   0  0  0  0  0  0  0  0  0  0  0  0
   33.0821  -39.1318    3.3126 C   0  0  0  0  0  0  0  0  0  0  0  0
   32.1451  -38.1147    3.1056 C   0  0  0  0  0  0  0  0  0  0  0  0
   31.8981  -37.1534    4.0949 C   0  0  0  0  0  0  0  0  0  0  0  0
   32.5993  -37.2380    5.3063 C   0  0  0  0  0  0  0  0  0  0  0  0
   33.5398  -38.2536    5.5073 C   0  0  0  0  0  0  0  0  0  0  0  0
   34.9158  -40.4187    6.2160 C   0  0  0  0  0  0  0  0  0  0  0  0
   34.7344  -40.1414    4.8315 O   0  0  0  0  0  0  0  0  0  0  0  0
   33.7792  -34.6671    0.1379 C   0  0  0  0  0  0  0  0  0  0  0  0
   35.0329  -34.3213   -0.5672 N   0  0  0  0  0  0  0  0  0  0  0  0
   36.1581  -35.1666   -0.1610 C   0  0  0  0  0  0  0  0  0  0  0  0
   34.8275  -34.3768   -2.0279 C   0  0  0  0  0  0  0  0  0  0  0  0
   35.6202  -33.3295   -2.7986 C   0  0  0  0  0  0  0  0  0  0  0  0
   35.3431  -31.9652   -2.5850 C   0  0  0  0  0  0  0  0  0  0  0  0
   36.0323  -30.9813   -3.3018 C   0  0  0  0  0  0  0  0  0  0  0  0
   35.6597  -29.3215   -3.0390 Cl  0  0  0  0  0  0  0  0  0  0  0  0
   37.0042  -31.3283   -4.2373 C   0  0  0  0  0  0  0  0  0  0  0  0
   37.2911  -32.6767   -4.4582 C   0  0  0  0  0  0  0  0  0  0  0  0
   36.6309  -33.6726   -3.7260 C   0  0  0  0  0  0  0  0  0  0  0  0
   36.9586  -35.0846   -3.9952 C   0  0  0  0  0  0  0  0  0  0  0  0
   37.5580  -35.8390   -3.2503 O   0  0  0  0  0  0  0  0  0  0  0  0
   36.5491  -35.4039   -5.2347 O   0  0  0  0  0  0  0  0  0  0  0  0
   36.0918  -34.7723   -5.7543 H   0  0  0  0  0  0  0  0  0  0  0  0
   38.2802  -33.0022   -5.3519 O   0  0  0  0  0  0  0  0  0  0  0  0
   38.8850  -31.8170   -5.8765 C   0  0  0  0  0  0  0  0  0  0  0  0
 22 23  1  0
 23 16  1  0
 16 17  2  0
 17 18  1  0
 18 19  2  0
 19 15  1  0
 15 11  1  0
 11 12  1  0
 12 13  2  0
 12  1  1  0
  1  2  2  0
  2  3  1  0
  3  4  2  0
  4  5  1  0
  5  6  2  0
  6  7  1  0
  7  8  2  0
  8  9  1  0
  9 10  2  0
 10 24  1  0
 24 25  1  0
 25 26  1  0
 25 27  1  0
 27 28  1  0
 28 29  2  0
 29 30  1  0
 30 31  1  0
 30 32  2  0
 32 33  1  0
 33 39  1  0
 39 40  1  0
 33 34  2  0
 34 35  1  0
 35 36  2  0
 35 37  1  0
 19 20  1  0
 20 21  2  0
 21 16  1  0
 10  1  1  0
 34 28  1  0
  8  3  1  0
 11 14  1  0
 37 38  1  0
M  END
> <minimizedAffinity>
-7.97086

> <CNNscore>
0.2738062739

> <CNNaffinity>
5.8628802299

> <CNN_VS>
1.6052933931

> <CNNaffinity_variance>
0.2653640509

$$$$



 40 43  0  0  0  0  0  0  0  0999 V2000
   33.7793  -28.1407   -2.1516 C   0  0  0  0  0  0  0  0  0  0  0  0
   32.5983  -27.8834   -1.4236 C   0  0  0  0  0  0  0  0  0  0  0  0
   32.0359  -28.8423   -0.5658 C   0  0  0  0  0  0  0  0  0  0  0  0
   30.8463  -28.5937    0.1398 C   0  0  0  0  0  0  0  0  0  0  0  0
   30.2942  -29.5687    0.9743 C   0  0  0  0  0  0  0  0  0  0  0  0
   30.9251  -30.7995    1.1178 C   0  0  0  0  0  0  0  0  0  0  0  0
   32.1127  -31.0565    0.4279 C   0  0  0  0  0  0  0  0  0  0  0  0
   32.6774  -30.0864   -0.4159 C   0  0  0  0  0  0  0  0  0  0  0  0
   33.8751  -30.3251   -1.1076 C   0  0  0  0  0  0  0  0  0  0  0  0
   34.4613  -29.3606   -1.9576 C   0  0  0  0  0  0  0  0  0  0  0  0
   34.2419  -27.4912   -4.4661 N   0  0  0  0  0  0  0  0  0  0  0  0
   34.2451  -27.1087   -3.1354 C   0  0  0  0  0  0  0  0  0  0  0  0
   34.6371  -26.0021   -2.7833 O   0  0  0  0  0  0  0  0  0  0  0  0
   34.0405  -28.4260   -4.7002 H   0  0  0  0  0  0  0  0  0  0  0  0
   34.5300  -26.5396   -5.5197 C   0  0  0  0  0  0  0  0  0  0  0  0
   37.0380  -28.2823   -8.5846 C   0  0  0  0  0  0  0  0  0  0  0  0
   36.3180  -27.1157   -8.8378 C   0  0  0  0  0  0  0  0  0  0  0  0
   35.5171  -26.5504   -7.8406 C   0  0  0  0  0  0  0  0  0  0  0  0
   35.4210  -27.1432   -6.5745 C   0  0  0  0  0  0  0  0  0  0  0  0
   36.1336  -28.3256   -6.3286 C   0  0  0  0  0  0  0  0  0  0  0  0
   36.9381  -28.8848   -7.3268 C   0  0  0  0  0  0  0  0  0  0  0  0
   38.3216  -30.2181   -9.0900 C   0  0  0  0  0  0  0  0  0  0  0  0
   37.8599  -28.9264   -9.4707 O   0  0  0  0  0  0  0  0  0  0  0  0
   35.7997  -29.7092   -2.5932 C   0  0  0  0  0  0  0  0  0  0  0  0
   36.9262  -28.8664   -2.1360 N   0  0  0  0  0  0  0  0  0  0  0  0
   37.3940  -29.2310   -0.7967 C   0  0  0  0  0  0  0  0  0  0  0  0
   38.0294  -28.9161   -3.1155 C   0  0  0  0  0  0  0  0  0  0  0  0
   38.8424  -27.6304   -3.1888 C   0  0  0  0  0  0  0  0  0  0  0  0
   38.1685  -26.3968   -3.2774 C   0  0  0  0  0  0  0  0  0  0  0  0
   38.8883  -25.2016   -3.3786 C   0  0  0  0  0  0  0  0  0  0  0  0
   38.0414  -23.7087   -3.5083 Cl  0  0  0  0  0  0  0  0  0  0  0  0
   40.2811  -25.2058   -3.3925 C   0  0  0  0  0  0  0  0  0  0  0  0
   40.9629  -26.4209   -3.3033 C   0  0  0  0  0  0  0  0  0  0  0  0
   40.2563  -27.6238   -3.1706 C   0  0  0  0  0  0  0  0  0  0  0  0
   41.0146  -28.8853   -3.0865 C   0  0  0  0  0  0  0  0  0  0  0  0
   41.0365  -29.6501   -2.1389 O   0  0  0  0  0  0  0  0  0  0  0  0
   41.7445  -29.0366   -4.2047 O   0  0  0  0  0  0  0  0  0  0  0  0
   41.6779  -28.4079   -4.8963 H   0  0  0  0  0  0  0  0  0  0  0  0
   42.3348  -26.4064   -3.2757 O   0  0  0  0  0  0  0  0  0  0  0  0
   42.8295  -25.1837   -3.8288 C   0  0  0  0  0  0  0  0  0  0  0  0
 22 23  1  0
 23 16  1  0
 16 17  2  0
 17 18  1  0
 18 19  2  0
 19 15  1  0
 15 11  1  0
 11 12  1  0
 12 13  2  0
 12  1  1  0
  1  2  2  0
  2  3  1  0
  3  4  2  0
  4  5  1  0
  5  6  2  0
  6  7  1  0
  7  8  2  0
  8  9  1  0
  9 10  2  0
 10 24  1  0
 24 25  1  0
 25 26  1  0
 25 27  1  0
 27 28  1  0
 28 29  2  0
 29 30  1  0
 30 31  1  0
 30 32  2  0
 32 33  1  0
 33 39  1  0
 39 40  1  0
 33 34  2  0
 34 35  1  0
 35 36  2  0
 35 37  1  0
 19 20  1  0
 20 21  2  0
 21 16  1  0
 10  1  1  0
 34 28  1  0
  8  3  1  0
 11 14  1  0
 37 38  1  0
M  END
> <minimizedAffinity>
-6.42428

> <CNNscore>
0.2412200868

> <CNNaffinity>
5.6491074562

> <CNN_VS>
1.3626781702

> <CNNaffinity_variance>
0.9139115810

$$$$



 40 43  0  0  0  0  0  0  0  0999 V2000
   35.0632  -29.4875   -1.5561 C   0  0  0  0  0  0  0  0  0  0  0  0
   33.9717  -28.5948   -1.6067 C   0  0  0  0  0  0  0  0  0  0  0  0
   32.8378  -28.7680   -0.7968 C   0  0  0  0  0  0  0  0  0  0  0  0
   31.7411  -27.8921   -0.8657 C   0  0  0  0  0  0  0  0  0  0  0  0
   30.6151  -28.0934   -0.0636 C   0  0  0  0  0  0  0  0  0  0  0  0
   30.5731  -29.1669    0.8192 C   0  0  0  0  0  0  0  0  0  0  0  0
   31.6603  -30.0407    0.9032 C   0  0  0  0  0  0  0  0  0  0  0  0
   32.7973  -29.8515    0.1011 C   0  0  0  0  0  0  0  0  0  0  0  0
   33.9018  -30.7140    0.1810 C   0  0  0  0  0  0  0  0  0  0  0  0
   35.0564  -30.5380   -0.6141 C   0  0  0  0  0  0  0  0  0  0  0  0
   35.9761  -29.8297   -3.8016 N   0  0  0  0  0  0  0  0  0  0  0  0
   36.1801  -29.2987   -2.5393 C   0  0  0  0  0  0  0  0  0  0  0  0
   37.2266  -28.7367   -2.2374 O   0  0  0  0  0  0  0  0  0  0  0  0
   35.1788  -30.3819   -3.9711 H   0  0  0  0  0  0  0  0  0  0  0  0
   36.9156  -29.5870   -4.8772 C   0  0  0  0  0  0  0  0  0  0  0  0
   35.5103  -26.5357   -7.6040 C   0  0  0  0  0  0  0  0  0  0  0  0
   36.2550  -27.6164   -8.0739 C   0  0  0  0  0  0  0  0  0  0  0  0
   36.6980  -28.6056   -7.1904 C   0  0  0  0  0  0  0  0  0  0  0  0
   36.4055  -28.5296   -5.8220 C   0  0  0  0  0  0  0  0  0  0  0  0
   35.6703  -27.4327   -5.3503 C   0  0  0  0  0  0  0  0  0  0  0  0
   35.2242  -26.4483   -6.2381 C   0  0  0  0  0  0  0  0  0  0  0  0
   35.9684  -24.6406   -8.9639 C   0  0  0  0  0  0  0  0  0  0  0  0
   35.0141  -25.5113   -8.3654 O   0  0  0  0  0  0  0  0  0  0  0  0
   36.2177  -31.4943   -0.3826 C   0  0  0  0  0  0  0  0  0  0  0  0
   35.8115  -32.8993   -0.1607 N   0  0  0  0  0  0  0  0  0  0  0  0
   35.0001  -33.4304   -1.2587 C   0  0  0  0  0  0  0  0  0  0  0  0
   37.0003  -33.7417    0.0764 C   0  0  0  0  0  0  0  0  0  0  0  0
   37.6263  -34.2911   -1.1985 C   0  0  0  0  0  0  0  0  0  0  0  0
   38.2595  -33.4030   -2.0897 C   0  0  0  0  0  0  0  0  0  0  0  0
   38.8152  -33.8737   -3.2840 C   0  0  0  0  0  0  0  0  0  0  0  0
   39.5639  -32.7650   -4.3672 Cl  0  0  0  0  0  0  0  0  0  0  0  0
   38.7557  -35.2252   -3.6156 C   0  0  0  0  0  0  0  0  0  0  0  0
   38.1330  -36.1178   -2.7410 C   0  0  0  0  0  0  0  0  0  0  0  0
   37.5988  -35.6662   -1.5266 C   0  0  0  0  0  0  0  0  0  0  0  0
   36.9436  -36.6405   -0.6351 C   0  0  0  0  0  0  0  0  0  0  0  0
   37.4317  -37.1490    0.3582 O   0  0  0  0  0  0  0  0  0  0  0  0
   35.7294  -36.9412   -1.1265 O   0  0  0  0  0  0  0  0  0  0  0  0
   35.4159  -36.5099   -1.8970 H   0  0  0  0  0  0  0  0  0  0  0  0
   38.1190  -37.4522   -3.0606 O   0  0  0  0  0  0  0  0  0  0  0  0
   38.3750  -37.6310   -4.4563 C   0  0  0  0  0  0  0  0  0  0  0  0
 22 23  1  0
 23 16  1  0
 16 17  2  0
 17 18  1  0
 18 19  2  0
 19 15  1  0
 15 11  1  0
 11 12  1  0
 12 13  2  0
 12  1  1  0
  1  2  2  0
  2  3  1  0
  3  4  2  0
  4  5  1  0
  5  6  2  0
  6  7  1  0
  7  8  2  0
  8  9  1  0
  9 10  2  0
 10 24  1  0
 24 25  1  0
 25 26  1  0
 25 27  1  0
 27 28  1  0
 28 29  2  0
 29 30  1  0
 30 31  1  0
 30 32  2  0
 32 33  1  0
 33 39  1  0
 39 40  1  0
 33 34  2  0
 34 35  1  0
 35 36  2  0
 35 37  1  0
 19 20  1  0
 20 21  2  0
 21 16  1  0
 10  1  1  0
 34 28  1  0
  8  3  1  0
 11 14  1  0
 37 38  1  0
M  END
> <minimizedAffinity>
-6.92501

> <CNNscore>
0.2385236025

> <CNNaffinity>
5.8868374825

> <CNN_VS>
1.4041496515

> <CNNaffinity_variance>
0.0672746822

$$$$
