


 50 54  0  0  0  0  0  0  0  0999 V2000
   13.4950    4.7774   12.6285 C   0  0  0  0  0  0  0  0  0  0  0  0
   14.1173    4.7897   11.3921 C   0  0  0  0  0  0  0  0  0  0  0  0
   13.5326    4.6901   10.0219 C   0  0  0  0  0  0  0  0  0  0  0  0
   15.4746    4.9254   11.6267 N   0  0  0  0  0  0  0  0  0  0  0  0
   15.7285    4.9785   12.9908 C   0  0  0  0  0  0  0  0  0  0  0  0
   16.9377    5.0894   13.7102 C   0  0  0  0  0  0  0  0  0  0  0  0
   16.8696    5.1038   15.1097 C   0  0  0  0  0  0  0  0  0  0  0  0
   15.6504    4.9805   15.7718 C   0  0  0  0  0  0  0  0  0  0  0  0
   14.4582    4.8836   15.0485 C   0  0  0  0  0  0  0  0  0  0  0  0
   14.4896    4.8878   13.6380 C   0  0  0  0  0  0  0  0  0  0  0  0
    9.6359    2.1817   15.2431 C   0  0  0  0  0  0  0  0  0  0  0  0
   11.0057    1.9290   15.3679 C   0  0  0  0  0  0  0  0  0  0  0  0
   11.9607    2.6778   14.6500 C   0  0  0  0  0  0  0  0  0  0  0  0
   11.5085    3.6946   13.7958 C   0  0  0  0  0  0  0  0  0  0  0  0
   12.0653    4.6449   12.9101 C   0  0  0  0  0  0  0  0  0  0  0  0
   11.1373    5.4204   12.3369 N   0  0  0  0  0  0  0  0  0  0  0  0
    9.9226    4.9571   12.8376 O   0  0  0  0  0  0  0  0  0  0  0  0
   10.1490    3.9299   13.7055 C   0  0  0  0  0  0  0  0  0  0  0  0
    9.1823    3.2028   14.3984 C   0  0  0  0  0  0  0  0  0  0  0  0
    8.4760    1.7581   17.2768 C   0  0  0  0  0  0  0  0  0  0  0  0
    8.6339    1.5036   15.8890 O   0  0  0  0  0  0  0  0  0  0  0  0
   16.4998    4.9986   10.5801 C   0  0  0  0  0  0  0  0  0  0  0  0
   16.8056    6.4234   10.1426 C   0  0  0  0  0  0  0  0  0  0  0  0
   15.9151    7.4854   10.4287 C   0  0  0  0  0  0  0  0  0  0  0  0
   16.2084    8.8007   10.0619 C   0  0  0  0  0  0  0  0  0  0  0  0
   17.4044    9.0752    9.4038 C   0  0  0  0  0  0  0  0  0  0  0  0
   18.2956    8.0431    9.1094 C   0  0  0  0  0  0  0  0  0  0  0  0
   18.0087    6.7291    9.4882 C   0  0  0  0  0  0  0  0  0  0  0  0
   19.1934    5.5249    9.1254 Cl  0  0  0  0  0  0  0  0  0  0  0  0
   15.4519    9.9011   10.3544 O   0  0  0  0  0  0  0  0  0  0  0  0
   15.8207   11.1878    9.8246 C   0  0  0  0  0  0  0  0  0  0  0  0
   14.8718   12.2439   10.3963 C   0  0  0  0  0  0  0  0  0  0  0  0
   15.6288   11.1002    8.2828 C   0  0  0  0  0  0  0  0  0  0  0  0
   16.5400   12.1536    7.3978 N   0  0  0  0  0  0  0  0  0  0  0  0
   17.7371   11.4013    6.8019 C   0  0  0  0  0  0  0  0  0  0  0  0
   17.0654   13.1727    8.4044 C   0  0  0  0  0  0  0  0  0  0  0  0
   15.5768   12.6860    6.3410 C   0  0  0  0  0  0  0  0  0  0  0  0
   15.9774   13.6927    5.2616 N   0  0  0  0  0  0  0  0  0  0  0  0
   17.3131   14.3730    5.4304 C   0  0  0  0  0  0  0  0  0  0  0  0
   14.9131   14.8415    5.2308 C   0  0  0  0  0  0  0  0  0  0  0  0
   15.8383   13.0720    3.8333 C   0  0  0  0  0  0  0  0  0  0  0  0
   14.8094   13.5296    2.8106 N   0  0  0  0  0  0  0  0  0  0  0  0
   15.0853   12.6285    1.5357 C   0  0  0  0  0  0  0  0  0  0  0  0
   14.9279   14.9623    2.3099 C   0  0  0  0  0  0  0  0  0  0  0  0
   13.3384   13.2345    3.1576 C   0  0  0  0  0  0  0  0  0  0  0  0
   17.9872    5.1380   15.8980 O   0  0  0  0  0  0  0  0  0  0  0  0
   18.3540    3.8756   16.4222 C   0  0  0  0  0  0  0  0  0  0  0  0
   17.4306    2.9200   16.1128 F   0  0  0  0  0  0  0  0  0  0  0  0
   18.4758    3.8793   17.7738 F   0  0  0  0  0  0  0  0  0  0  0  0
   19.5309    3.4753   15.8950 F   0  0  0  0  0  0  0  0  0  0  0  0
 20 21  1  0
 21 11  1  0
 11 12  2  0
 12 13  1  0
 13 14  2  0
 14 15  1  0
 15  1  1  0
  1  2  2  0
  2  3  1  0
  2  4  1  0
  4 22  1  0
 22 23  1  0
 23 24  2  0
 24 25  1  0
 25 30  1  0
 30 31  1  0
 31 32  1  0
 31 33  1  0
 33 34  1  0
 34 35  1  0
 34 36  1  0
 34 37  1  0
 37 38  1  0
 38 39  1  0
 38 40  1  0
 38 41  1  0
 41 42  1  0
 42 43  1  0
 42 44  1  0
 42 45  1  0
 25 26  2  0
 26 27  1  0
 27 28  2  0
 28 29  1  0
  4  5  1  0
  5  6  2  0
  6  7  1  0
  7 46  1  0
 46 47  1  0
 47 48  1  0
 47 49  1  0
 47 50  1  0
  7  8  2  0
  8  9  1  0
  9 10  2  0
 15 16  2  0
 16 17  1  0
 17 18  1  0
 18 19  2  0
 19 11  1  0
 18 14  1  0
 10  1  1  0
 28 23  1  0
 10  5  1  0
M  CHG 1  34   1
M  CHG 1  38   1
M  CHG 1  42   1
M  END
> <minimizedAffinity>
-10.12175

> <CNNscore>
0.9493161440

> <CNNaffinity>
8.5611686707

> <CNN_VS>
8.1272554398

> <CNNaffinity_variance>
0.9016774297

$$$$



 50 54  0  0  0  0  0  0  0  0999 V2000
   13.4035    4.7667   12.6185 C   0  0  0  0  0  0  0  0  0  0  0  0
   14.0337    4.7991   11.3865 C   0  0  0  0  0  0  0  0  0  0  0  0
   13.4612    4.6901   10.0119 C   0  0  0  0  0  0  0  0  0  0  0  0
   15.3857    4.9675   11.6310 N   0  0  0  0  0  0  0  0  0  0  0  0
   15.6287    5.0217   12.9971 C   0  0  0  0  0  0  0  0  0  0  0  0
   16.8299    5.1600   13.7253 C   0  0  0  0  0  0  0  0  0  0  0  0
   16.7517    5.1674   15.1243 C   0  0  0  0  0  0  0  0  0  0  0  0
   15.5315    5.0114   15.7774 C   0  0  0  0  0  0  0  0  0  0  0  0
   14.3471    4.8877   15.0455 C   0  0  0  0  0  0  0  0  0  0  0  0
   14.3881    4.8980   13.6353 C   0  0  0  0  0  0  0  0  0  0  0  0
    9.6032    2.1779   15.3244 C   0  0  0  0  0  0  0  0  0  0  0  0
   10.9792    1.9824   15.4794 C   0  0  0  0  0  0  0  0  0  0  0  0
   11.9168    2.7253   14.7331 C   0  0  0  0  0  0  0  0  0  0  0  0
   11.4407    3.6772   13.8192 C   0  0  0  0  0  0  0  0  0  0  0  0
   11.9756    4.5977   12.8896 C   0  0  0  0  0  0  0  0  0  0  0  0
   11.0287    5.3067   12.2637 N   0  0  0  0  0  0  0  0  0  0  0  0
    9.8243    4.8274   12.7743 O   0  0  0  0  0  0  0  0  0  0  0  0
   10.0751    3.8577   13.6998 C   0  0  0  0  0  0  0  0  0  0  0  0
    9.1253    3.1345   14.4197 C   0  0  0  0  0  0  0  0  0  0  0  0
    8.4823    1.7662   17.3824 C   0  0  0  0  0  0  0  0  0  0  0  0
    8.6169    1.4998   15.9943 O   0  0  0  0  0  0  0  0  0  0  0  0
   16.4159    5.0700   10.5919 C   0  0  0  0  0  0  0  0  0  0  0  0
   16.6933    6.5040   10.1659 C   0  0  0  0  0  0  0  0  0  0  0  0
   15.7749    7.5433   10.4469 C   0  0  0  0  0  0  0  0  0  0  0  0
   16.0416    8.8672   10.0908 C   0  0  0  0  0  0  0  0  0  0  0  0
   17.2387    9.1733    9.4486 C   0  0  0  0  0  0  0  0  0  0  0  0
   18.1573    8.1640    9.1594 C   0  0  0  0  0  0  0  0  0  0  0  0
   17.8967    6.8415    9.5276 C   0  0  0  0  0  0  0  0  0  0  0  0
   19.1135    5.6674    9.1727 Cl  0  0  0  0  0  0  0  0  0  0  0  0
   15.2562    9.9478   10.3801 O   0  0  0  0  0  0  0  0  0  0  0  0
   15.5498   11.2278    9.7903 C   0  0  0  0  0  0  0  0  0  0  0  0
   14.8416   12.3157   10.6012 C   0  0  0  0  0  0  0  0  0  0  0  0
   14.9641   11.1930    8.3490 C   0  0  0  0  0  0  0  0  0  0  0  0
   15.4727   12.4054    7.3518 N   0  0  0  0  0  0  0  0  0  0  0  0
   15.3617   13.7437    8.0940 C   0  0  0  0  0  0  0  0  0  0  0  0
   14.4799   12.4144    6.1933 C   0  0  0  0  0  0  0  0  0  0  0  0
   16.9094   12.0270    7.0043 C   0  0  0  0  0  0  0  0  0  0  0  0
   18.0417   13.0453    6.8620 N   0  0  0  0  0  0  0  0  0  0  0  0
   18.6290   13.5898    8.1401 C   0  0  0  0  0  0  0  0  0  0  0  0
   17.5000   14.2876    6.0766 C   0  0  0  0  0  0  0  0  0  0  0  0
   19.1617   12.5124    5.9099 C   0  0  0  0  0  0  0  0  0  0  0  0
   20.0543   13.4130    5.0697 N   0  0  0  0  0  0  0  0  0  0  0  0
   21.2283   12.4670    4.5795 C   0  0  0  0  0  0  0  0  0  0  0  0
   20.7505   14.5580    5.7920 C   0  0  0  0  0  0  0  0  0  0  0  0
   19.4371   13.9406    3.7612 C   0  0  0  0  0  0  0  0  0  0  0  0
   17.8628    5.2263   15.9205 O   0  0  0  0  0  0  0  0  0  0  0  0
   18.3049    3.9618   16.3768 C   0  0  0  0  0  0  0  0  0  0  0  0
   19.6558    3.8269   16.2403 F   0  0  0  0  0  0  0  0  0  0  0  0
   17.7383    2.9288   15.7035 F   0  0  0  0  0  0  0  0  0  0  0  0
   18.0222    3.8140   17.6889 F   0  0  0  0  0  0  0  0  0  0  0  0
 20 21  1  0
 21 11  1  0
 11 12  2  0
 12 13  1  0
 13 14  2  0
 14 15  1  0
 15  1  1  0
  1  2  2  0
  2  3  1  0
  2  4  1  0
  4 22  1  0
 22 23  1  0
 23 24  2  0
 24 25  1  0
 25 30  1  0
 30 31  1  0
 31 32  1  0
 31 33  1  0
 33 34  1  0
 34 35  1  0
 34 36  1  0
 34 37  1  0
 37 38  1  0
 38 39  1  0
 38 40  1  0
 38 41  1  0
 41 42  1  0
 42 43  1  0
 42 44  1  0
 42 45  1  0
 25 26  2  0
 26 27  1  0
 27 28  2  0
 28 29  1  0
  4  5  1  0
  5  6  2  0
  6  7  1  0
  7 46  1  0
 46 47  1  0
 47 48  1  0
 47 49  1  0
 47 50  1  0
  7  8  2  0
  8  9  1  0
  9 10  2  0
 15 16  2  0
 16 17  1  0
 17 18  1  0
 18 19  2  0
 19 11  1  0
 18 14  1  0
 10  1  1  0
 28 23  1  0
 10  5  1  0
M  CHG 1  34   1
M  CHG 1  38   1
M  CHG 1  42   1
M  END
> <minimizedAffinity>
-10.25255

> <CNNscore>
0.9469921589

> <CNNaffinity>
8.5856895447

> <CNN_VS>
8.1305809021

> <CNNaffinity_variance>
1.0373497009

$$$$



 50 54  0  0  0  0  0  0  0  0999 V2000
   13.2704    4.8294   12.5778 C   0  0  0  0  0  0  0  0  0  0  0  0
   13.9110    4.8533   11.3509 C   0  0  0  0  0  0  0  0  0  0  0  0
   13.3462    4.7745    9.9710 C   0  0  0  0  0  0  0  0  0  0  0  0
   15.2655    4.9775   11.6072 N   0  0  0  0  0  0  0  0  0  0  0  0
   15.4994    5.0118   12.9755 C   0  0  0  0  0  0  0  0  0  0  0  0
   16.6985    5.1062   13.7140 C   0  0  0  0  0  0  0  0  0  0  0  0
   16.6097    5.1035   15.1124 C   0  0  0  0  0  0  0  0  0  0  0  0
   15.3801    4.9795   15.7548 C   0  0  0  0  0  0  0  0  0  0  0  0
   14.1982    4.8992   15.0128 C   0  0  0  0  0  0  0  0  0  0  0  0
   14.2506    4.9209   13.6031 C   0  0  0  0  0  0  0  0  0  0  0  0
    9.3669    2.3023   15.1936 C   0  0  0  0  0  0  0  0  0  0  0  0
   10.7344    2.0558   15.3509 C   0  0  0  0  0  0  0  0  0  0  0  0
   11.7016    2.7855   14.6296 C   0  0  0  0  0  0  0  0  0  0  0  0
   11.2640    3.7766   13.7386 C   0  0  0  0  0  0  0  0  0  0  0  0
   11.8359    4.7023   12.8364 C   0  0  0  0  0  0  0  0  0  0  0  0
   10.9177    5.4595   12.2243 N   0  0  0  0  0  0  0  0  0  0  0  0
    9.6945    5.0084   12.7155 O   0  0  0  0  0  0  0  0  0  0  0  0
    9.9061    4.0068   13.6164 C   0  0  0  0  0  0  0  0  0  0  0  0
    8.9277    3.2980   14.3118 C   0  0  0  0  0  0  0  0  0  0  0  0
    8.5301    1.3929   17.2267 C   0  0  0  0  0  0  0  0  0  0  0  0
    8.3539    1.6411   15.8399 O   0  0  0  0  0  0  0  0  0  0  0  0
   16.3066    5.0573   10.5769 C   0  0  0  0  0  0  0  0  0  0  0  0
   16.6666    6.4872   10.2017 C   0  0  0  0  0  0  0  0  0  0  0  0
   15.8362    7.5728   10.5683 C   0  0  0  0  0  0  0  0  0  0  0  0
   16.1807    8.8904   10.2585 C   0  0  0  0  0  0  0  0  0  0  0  0
   17.3688    9.1432    9.5778 C   0  0  0  0  0  0  0  0  0  0  0  0
   18.2012    8.0879    9.2044 C   0  0  0  0  0  0  0  0  0  0  0  0
   17.8634    6.7707    9.5259 C   0  0  0  0  0  0  0  0  0  0  0  0
   18.9787    5.5336    9.0664 Cl  0  0  0  0  0  0  0  0  0  0  0  0
   15.4860   10.0078   10.6292 O   0  0  0  0  0  0  0  0  0  0  0  0
   14.6044   10.6502    9.6898 C   0  0  0  0  0  0  0  0  0  0  0  0
   15.0197   10.2473    8.2729 C   0  0  0  0  0  0  0  0  0  0  0  0
   14.8074   12.1822    9.8725 C   0  0  0  0  0  0  0  0  0  0  0  0
   13.4843   13.1127    9.5462 N   0  0  0  0  0  0  0  0  0  0  0  0
   12.3151   12.2001    9.1535 C   0  0  0  0  0  0  0  0  0  0  0  0
   13.8718   13.9479    8.3297 C   0  0  0  0  0  0  0  0  0  0  0  0
   13.2389   13.8822   10.8407 C   0  0  0  0  0  0  0  0  0  0  0  0
   13.8783   15.2357   11.1546 N   0  0  0  0  0  0  0  0  0  0  0  0
   13.1107   16.1514   12.0751 C   0  0  0  0  0  0  0  0  0  0  0  0
   14.0557   16.0267    9.8144 C   0  0  0  0  0  0  0  0  0  0  0  0
   15.3556   15.0622   11.6365 C   0  0  0  0  0  0  0  0  0  0  0  0
   16.2229   16.2104   12.1300 N   0  0  0  0  0  0  0  0  0  0  0  0
   16.1889   16.0863   13.7101 C   0  0  0  0  0  0  0  0  0  0  0  0
   15.7283   17.6202   11.8378 C   0  0  0  0  0  0  0  0  0  0  0  0
   17.7212   16.1180   11.7864 C   0  0  0  0  0  0  0  0  0  0  0  0
   17.7157    5.1207   15.9175 O   0  0  0  0  0  0  0  0  0  0  0  0
   18.0910    3.8436   16.3982 C   0  0  0  0  0  0  0  0  0  0  0  0
   18.0666    3.7973   17.7617 F   0  0  0  0  0  0  0  0  0  0  0  0
   19.3418    3.4814   16.0165 F   0  0  0  0  0  0  0  0  0  0  0  0
   17.2274    2.9055   15.9540 F   0  0  0  0  0  0  0  0  0  0  0  0
 20 21  1  0
 21 11  1  0
 11 12  2  0
 12 13  1  0
 13 14  2  0
 14 15  1  0
 15  1  1  0
  1  2  2  0
  2  3  1  0
  2  4  1  0
  4 22  1  0
 22 23  1  0
 23 24  2  0
 24 25  1  0
 25 30  1  0
 30 31  1  0
 31 32  1  0
 31 33  1  0
 33 34  1  0
 34 35  1  0
 34 36  1  0
 34 37  1  0
 37 38  1  0
 38 39  1  0
 38 40  1  0
 38 41  1  0
 41 42  1  0
 42 43  1  0
 42 44  1  0
 42 45  1  0
 25 26  2  0
 26 27  1  0
 27 28  2  0
 28 29  1  0
  4  5  1  0
  5  6  2  0
  6  7  1  0
  7 46  1  0
 46 47  1  0
 47 48  1  0
 47 49  1  0
 47 50  1  0
  7  8  2  0
  8  9  1  0
  9 10  2  0
 15 16  2  0
 16 17  1  0
 17 18  1  0
 18 19  2  0
 19 11  1  0
 18 14  1  0
 10  1  1  0
 28 23  1  0
 10  5  1  0
M  CHG 1  34   1
M  CHG 1  38   1
M  CHG 1  42   1
M  END
> <minimizedAffinity>
-10.57161

> <CNNscore>
0.9349198937

> <CNNaffinity>
8.5141048431

> <CNN_VS>
7.9600057602

> <CNNaffinity_variance>
1.0498713255

$$$$



 50 54  0  0  0  0  0  0  0  0999 V2000
   13.7138    4.6687   12.5666 C   0  0  0  0  0  0  0  0  0  0  0  0
   14.3887    4.6098   11.3594 C   0  0  0  0  0  0  0  0  0  0  0  0
   13.8630    4.4341    9.9730 C   0  0  0  0  0  0  0  0  0  0  0  0
   15.7353    4.7555   11.6444 N   0  0  0  0  0  0  0  0  0  0  0  0
   15.9305    4.8849   13.0131 C   0  0  0  0  0  0  0  0  0  0  0  0
   17.1082    5.0337   13.7766 C   0  0  0  0  0  0  0  0  0  0  0  0
   16.9800    5.1273   15.1688 C   0  0  0  0  0  0  0  0  0  0  0  0
   15.7330    5.0443   15.7835 C   0  0  0  0  0  0  0  0  0  0  0  0
   14.5725    4.9093   15.0160 C   0  0  0  0  0  0  0  0  0  0  0  0
   14.6646    4.8338   13.6102 C   0  0  0  0  0  0  0  0  0  0  0  0
    9.7340    2.2355   15.1564 C   0  0  0  0  0  0  0  0  0  0  0  0
   11.0960    1.9876   15.3546 C   0  0  0  0  0  0  0  0  0  0  0  0
   12.0844    2.6919   14.6369 C   0  0  0  0  0  0  0  0  0  0  0  0
   11.6740    3.6588   13.7070 C   0  0  0  0  0  0  0  0  0  0  0  0
   12.2727    4.5555   12.7931 C   0  0  0  0  0  0  0  0  0  0  0  0
   11.3738    5.2986   12.1367 N   0  0  0  0  0  0  0  0  0  0  0  0
   10.1365    4.8673   12.6102 O   0  0  0  0  0  0  0  0  0  0  0  0
   10.3207    3.8913   13.5446 C   0  0  0  0  0  0  0  0  0  0  0  0
    9.3218    3.2072   14.2356 C   0  0  0  0  0  0  0  0  0  0  0  0
    8.6251    1.7528   17.2053 C   0  0  0  0  0  0  0  0  0  0  0  0
    8.7020    1.5977   15.7961 O   0  0  0  0  0  0  0  0  0  0  0  0
   16.8049    4.7671   10.6406 C   0  0  0  0  0  0  0  0  0  0  0  0
   17.1225    6.1621   10.1230 C   0  0  0  0  0  0  0  0  0  0  0  0
   16.2936    7.2661   10.4341 C   0  0  0  0  0  0  0  0  0  0  0  0
   16.6008    8.5550    9.9923 C   0  0  0  0  0  0  0  0  0  0  0  0
   17.7495    8.7603    9.2325 C   0  0  0  0  0  0  0  0  0  0  0  0
   18.5795    7.6859    8.9118 C   0  0  0  0  0  0  0  0  0  0  0  0
   18.2796    6.3986    9.3650 C   0  0  0  0  0  0  0  0  0  0  0  0
   19.3908    5.1389    8.9604 Cl  0  0  0  0  0  0  0  0  0  0  0  0
   15.9072    9.6926   10.2978 O   0  0  0  0  0  0  0  0  0  0  0  0
   14.6264    9.9385    9.6883 C   0  0  0  0  0  0  0  0  0  0  0  0
   13.8863    8.6063    9.5474 C   0  0  0  0  0  0  0  0  0  0  0  0
   14.9164   10.5213    8.2748 C   0  0  0  0  0  0  0  0  0  0  0  0
   14.4592   12.0911    8.0520 N   0  0  0  0  0  0  0  0  0  0  0  0
   14.3432   12.3698    6.5476 C   0  0  0  0  0  0  0  0  0  0  0  0
   15.6084   12.9262    8.6084 C   0  0  0  0  0  0  0  0  0  0  0  0
   13.1279   12.2019    8.7892 C   0  0  0  0  0  0  0  0  0  0  0  0
   12.6952   13.4422    9.5724 N   0  0  0  0  0  0  0  0  0  0  0  0
   11.3403   13.3888   10.2333 C   0  0  0  0  0  0  0  0  0  0  0  0
   12.6440   14.6606    8.5894 C   0  0  0  0  0  0  0  0  0  0  0  0
   13.8001   13.8806   10.5882 C   0  0  0  0  0  0  0  0  0  0  0  0
   13.8464   15.2516   11.2455 N   0  0  0  0  0  0  0  0  0  0  0  0
   14.3397   16.2282   10.0983 C   0  0  0  0  0  0  0  0  0  0  0  0
   14.8487   15.4384   12.3759 C   0  0  0  0  0  0  0  0  0  0  0  0
   12.4884   15.8404   11.6704 C   0  0  0  0  0  0  0  0  0  0  0  0
   18.0629    5.2034   16.0015 O   0  0  0  0  0  0  0  0  0  0  0  0
   18.3994    3.9724   16.6132 C   0  0  0  0  0  0  0  0  0  0  0  0
   17.8974    3.8912   17.8793 F   0  0  0  0  0  0  0  0  0  0  0  0
   19.7391    3.7787   16.7100 F   0  0  0  0  0  0  0  0  0  0  0  0
   17.8754    2.9442   15.9122 F   0  0  0  0  0  0  0  0  0  0  0  0
 20 21  1  0
 21 11  1  0
 11 12  2  0
 12 13  1  0
 13 14  2  0
 14 15  1  0
 15  1  1  0
  1  2  2  0
  2  3  1  0
  2  4  1  0
  4 22  1  0
 22 23  1  0
 23 24  2  0
 24 25  1  0
 25 30  1  0
 30 31  1  0
 31 32  1  0
 31 33  1  0
 33 34  1  0
 34 35  1  0
 34 36  1  0
 34 37  1  0
 37 38  1  0
 38 39  1  0
 38 40  1  0
 38 41  1  0
 41 42  1  0
 42 43  1  0
 42 44  1  0
 42 45  1  0
 25 26  2  0
 26 27  1  0
 27 28  2  0
 28 29  1  0
  4  5  1  0
  5  6  2  0
  6  7  1  0
  7 46  1  0
 46 47  1  0
 47 48  1  0
 47 49  1  0
 47 50  1  0
  7  8  2  0
  8  9  1  0
  9 10  2  0
 15 16  2  0
 16 17  1  0
 17 18  1  0
 18 19  2  0
 19 11  1  0
 18 14  1  0
 10  1  1  0
 28 23  1  0
 10  5  1  0
M  CHG 1  34   1
M  CHG 1  38   1
M  CHG 1  42   1
M  END
> <minimizedAffinity>
-10.43787

> <CNNscore>
0.9107687473

> <CNNaffinity>
8.6164731979

> <CNN_VS>
7.8476142883

> <CNNaffinity_variance>
1.0733933449

$$$$



 50 54  0  0  0  0  0  0  0  0999 V2000
   13.6867    4.6979   12.5686 C   0  0  0  0  0  0  0  0  0  0  0  0
   14.3472    4.6571   11.3528 C   0  0  0  0  0  0  0  0  0  0  0  0
   13.8050    4.5036    9.9701 C   0  0  0  0  0  0  0  0  0  0  0  0
   15.6973    4.7973   11.6240 N   0  0  0  0  0  0  0  0  0  0  0  0
   15.9088    4.9052   12.9921 C   0  0  0  0  0  0  0  0  0  0  0  0
   17.0957    5.0410   13.7438 C   0  0  0  0  0  0  0  0  0  0  0  0
   16.9841    5.1130   15.1387 C   0  0  0  0  0  0  0  0  0  0  0  0
   15.7443    5.0215   15.7668 C   0  0  0  0  0  0  0  0  0  0  0  0
   14.5747    4.8995   15.0112 C   0  0  0  0  0  0  0  0  0  0  0  0
   14.6500    4.8458   13.6033 C   0  0  0  0  0  0  0  0  0  0  0  0
    9.7319    2.1961   15.1311 C   0  0  0  0  0  0  0  0  0  0  0  0
   11.0954    1.9373   15.3033 C   0  0  0  0  0  0  0  0  0  0  0  0
   12.0770    2.6609   14.5956 C   0  0  0  0  0  0  0  0  0  0  0  0
   11.6582    3.6587   13.7029 C   0  0  0  0  0  0  0  0  0  0  0  0
   12.2483    4.5823   12.8104 C   0  0  0  0  0  0  0  0  0  0  0  0
   11.3437    5.3494   12.1903 N   0  0  0  0  0  0  0  0  0  0  0  0
   10.1111    4.9073   12.6660 O   0  0  0  0  0  0  0  0  0  0  0  0
   10.3038    3.9010   13.5659 C   0  0  0  0  0  0  0  0  0  0  0  0
    9.3114    3.1984   14.2477 C   0  0  0  0  0  0  0  0  0  0  0  0
    8.6318    1.6742   17.1753 C   0  0  0  0  0  0  0  0  0  0  0  0
    8.7059    1.5415   15.7636 O   0  0  0  0  0  0  0  0  0  0  0  0
   16.7549    4.8236   10.6079 C   0  0  0  0  0  0  0  0  0  0  0  0
   17.0879    6.2289   10.1293 C   0  0  0  0  0  0  0  0  0  0  0  0
   16.2900    7.3377   10.4987 C   0  0  0  0  0  0  0  0  0  0  0  0
   16.6122    8.6346   10.0926 C   0  0  0  0  0  0  0  0  0  0  0  0
   17.7452    8.8431    9.3103 C   0  0  0  0  0  0  0  0  0  0  0  0
   18.5445    7.7641    8.9322 C   0  0  0  0  0  0  0  0  0  0  0  0
   18.2298    6.4683    9.3495 C   0  0  0  0  0  0  0  0  0  0  0  0
   19.3043    5.2015    8.8741 Cl  0  0  0  0  0  0  0  0  0  0  0  0
   15.9502    9.7746   10.4541 O   0  0  0  0  0  0  0  0  0  0  0  0
   14.7768   10.1848    9.7278 C   0  0  0  0  0  0  0  0  0  0  0  0
   13.9489    8.9423    9.3911 C   0  0  0  0  0  0  0  0  0  0  0  0
   15.2820   10.8424    8.4110 C   0  0  0  0  0  0  0  0  0  0  0  0
   15.2548   12.4922    8.3911 N   0  0  0  0  0  0  0  0  0  0  0  0
   15.3465   12.9768    6.9383 C   0  0  0  0  0  0  0  0  0  0  0  0
   16.5227   12.9228    9.1225 C   0  0  0  0  0  0  0  0  0  0  0  0
   13.9338   12.8533    9.0640 C   0  0  0  0  0  0  0  0  0  0  0  0
   13.7659   14.0373   10.0176 N   0  0  0  0  0  0  0  0  0  0  0  0
   14.4714   15.3164    9.6417 C   0  0  0  0  0  0  0  0  0  0  0  0
   14.3326   13.6324   11.4206 C   0  0  0  0  0  0  0  0  0  0  0  0
   12.2565   14.2980   10.3311 C   0  0  0  0  0  0  0  0  0  0  0  0
   11.1117   13.6231    9.5908 N   0  0  0  0  0  0  0  0  0  0  0  0
   10.8043   14.5848    8.3685 C   0  0  0  0  0  0  0  0  0  0  0  0
    9.7892   13.5011   10.3347 C   0  0  0  0  0  0  0  0  0  0  0  0
   11.4435   12.2755    8.9235 C   0  0  0  0  0  0  0  0  0  0  0  0
   18.0768    5.1753   15.9596 O   0  0  0  0  0  0  0  0  0  0  0  0
   18.4133    3.9367   16.5559 C   0  0  0  0  0  0  0  0  0  0  0  0
   19.7653    3.7628   16.6150 F   0  0  0  0  0  0  0  0  0  0  0  0
   17.9106    2.8714   15.8822 F   0  0  0  0  0  0  0  0  0  0  0  0
   17.9515    3.8884   17.8239 F   0  0  0  0  0  0  0  0  0  0  0  0
 20 21  1  0
 21 11  1  0
 11 12  2  0
 12 13  1  0
 13 14  2  0
 14 15  1  0
 15  1  1  0
  1  2  2  0
  2  3  1  0
  2  4  1  0
  4 22  1  0
 22 23  1  0
 23 24  2  0
 24 25  1  0
 25 30  1  0
 30 31  1  0
 31 32  1  0
 31 33  1  0
 33 34  1  0
 34 35  1  0
 34 36  1  0
 34 37  1  0
 37 38  1  0
 38 39  1  0
 38 40  1  0
 38 41  1  0
 41 42  1  0
 42 43  1  0
 42 44  1  0
 42 45  1  0
 25 26  2  0
 26 27  1  0
 27 28  2  0
 28 29  1  0
  4  5  1  0
  5  6  2  0
  6  7  1  0
  7 46  1  0
 46 47  1  0
 47 48  1  0
 47 49  1  0
 47 50  1  0
  7  8  2  0
  8  9  1  0
  9 10  2  0
 15 16  2  0
 16 17  1  0
 17 18  1  0
 18 19  2  0
 19 11  1  0
 18 14  1  0
 10  1  1  0
 28 23  1  0
 10  5  1  0
M  CHG 1  34   1
M  CHG 1  38   1
M  CHG 1  42   1
M  END
> <minimizedAffinity>
-10.43469

> <CNNscore>
0.8874463439

> <CNNaffinity>
8.5492477417

> <CNN_VS>
7.5869984627

> <CNNaffinity_variance>
1.0513787270

$$$$



 50 54  0  0  0  0  0  0  0  0999 V2000
   13.6848    4.7648   12.4885 C   0  0  0  0  0  0  0  0  0  0  0  0
   14.3768    4.7159   11.2906 C   0  0  0  0  0  0  0  0  0  0  0  0
   13.8694    4.5730    9.8937 C   0  0  0  0  0  0  0  0  0  0  0  0
   15.7211    4.8347   11.5980 N   0  0  0  0  0  0  0  0  0  0  0  0
   15.8977    4.9371   12.9715 C   0  0  0  0  0  0  0  0  0  0  0  0
   17.0659    5.0534   13.7550 C   0  0  0  0  0  0  0  0  0  0  0  0
   16.9182    5.1248   15.1465 C   0  0  0  0  0  0  0  0  0  0  0  0
   15.6608    5.0514   15.7411 C   0  0  0  0  0  0  0  0  0  0  0  0
   14.5102    4.9487   14.9543 C   0  0  0  0  0  0  0  0  0  0  0  0
   14.6222    4.8962   13.5488 C   0  0  0  0  0  0  0  0  0  0  0  0
    9.6236    2.3075   14.9245 C   0  0  0  0  0  0  0  0  0  0  0  0
   10.9776    2.0247   15.1299 C   0  0  0  0  0  0  0  0  0  0  0  0
   11.9892    2.7379   14.4545 C   0  0  0  0  0  0  0  0  0  0  0  0
   11.6104    3.7500   13.5600 C   0  0  0  0  0  0  0  0  0  0  0  0
   12.2388    4.6711   12.6915 C   0  0  0  0  0  0  0  0  0  0  0  0
   11.3635    5.4582   12.0548 N   0  0  0  0  0  0  0  0  0  0  0  0
   10.1117    5.0327   12.4941 O   0  0  0  0  0  0  0  0  0  0  0  0
   10.2642    4.0158   13.3899 C   0  0  0  0  0  0  0  0  0  0  0  0
    9.2429    3.3240   14.0392 C   0  0  0  0  0  0  0  0  0  0  0  0
    8.5193    1.7001   16.9425 C   0  0  0  0  0  0  0  0  0  0  0  0
    8.5707    1.6647   15.5241 O   0  0  0  0  0  0  0  0  0  0  0  0
   16.8058    4.8464   10.6106 C   0  0  0  0  0  0  0  0  0  0  0  0
   17.1569    6.2453   10.1261 C   0  0  0  0  0  0  0  0  0  0  0  0
   16.4373    7.3785   10.5739 C   0  0  0  0  0  0  0  0  0  0  0  0
   16.7790    8.6683   10.1610 C   0  0  0  0  0  0  0  0  0  0  0  0
   17.8534    8.8448    9.2930 C   0  0  0  0  0  0  0  0  0  0  0  0
   18.5750    7.7415    8.8369 C   0  0  0  0  0  0  0  0  0  0  0  0
   18.2418    6.4522    9.2604 C   0  0  0  0  0  0  0  0  0  0  0  0
   19.2219    5.1520    8.6825 Cl  0  0  0  0  0  0  0  0  0  0  0  0
   16.1952    9.8274   10.5903 O   0  0  0  0  0  0  0  0  0  0  0  0
   14.7951   10.0590   10.3483 C   0  0  0  0  0  0  0  0  0  0  0  0
   14.4311    9.4779    8.9800 C   0  0  0  0  0  0  0  0  0  0  0  0
   14.6026   11.6030   10.3225 C   0  0  0  0  0  0  0  0  0  0  0  0
   15.1813   12.3634    8.9772 N   0  0  0  0  0  0  0  0  0  0  0  0
   15.4926   11.3127    7.9033 C   0  0  0  0  0  0  0  0  0  0  0  0
   16.4936   13.0076    9.4141 C   0  0  0  0  0  0  0  0  0  0  0  0
   14.0622   13.3201    8.5769 C   0  0  0  0  0  0  0  0  0  0  0  0
   13.9299   13.9306    7.1809 N   0  0  0  0  0  0  0  0  0  0  0  0
   13.7738   12.9670    6.0310 C   0  0  0  0  0  0  0  0  0  0  0  0
   15.2240   14.7578    6.8732 C   0  0  0  0  0  0  0  0  0  0  0  0
   12.8177   15.0292    7.1498 C   0  0  0  0  0  0  0  0  0  0  0  0
   11.3279   14.7224    7.1535 N   0  0  0  0  0  0  0  0  0  0  0  0
   10.9136   14.7347    5.6233 C   0  0  0  0  0  0  0  0  0  0  0  0
   10.4165   15.7476    7.8136 C   0  0  0  0  0  0  0  0  0  0  0  0
   10.9324   13.3123    7.6297 C   0  0  0  0  0  0  0  0  0  0  0  0
   17.9895    5.1688   15.9964 O   0  0  0  0  0  0  0  0  0  0  0  0
   18.4643    3.8926   16.3818 C   0  0  0  0  0  0  0  0  0  0  0  0
   17.5199    2.9282   16.1825 F   0  0  0  0  0  0  0  0  0  0  0  0
   18.8153    3.8321   17.6913 F   0  0  0  0  0  0  0  0  0  0  0  0
   19.5411    3.5521   15.6416 F   0  0  0  0  0  0  0  0  0  0  0  0
 20 21  1  0
 21 11  1  0
 11 12  2  0
 12 13  1  0
 13 14  2  0
 14 15  1  0
 15  1  1  0
  1  2  2  0
  2  3  1  0
  2  4  1  0
  4 22  1  0
 22 23  1  0
 23 24  2  0
 24 25  1  0
 25 30  1  0
 30 31  1  0
 31 32  1  0
 31 33  1  0
 33 34  1  0
 34 35  1  0
 34 36  1  0
 34 37  1  0
 37 38  1  0
 38 39  1  0
 38 40  1  0
 38 41  1  0
 41 42  1  0
 42 43  1  0
 42 44  1  0
 42 45  1  0
 25 26  2  0
 26 27  1  0
 27 28  2  0
 28 29  1  0
  4  5  1  0
  5  6  2  0
  6  7  1  0
  7 46  1  0
 46 47  1  0
 47 48  1  0
 47 49  1  0
 47 50  1  0
  7  8  2  0
  8  9  1  0
  9 10  2  0
 15 16  2  0
 16 17  1  0
 17 18  1  0
 18 19  2  0
 19 11  1  0
 18 14  1  0
 10  1  1  0
 28 23  1  0
 10  5  1  0
M  CHG 1  34   1
M  CHG 1  38   1
M  CHG 1  42   1
M  END
> <minimizedAffinity>
-9.88375

> <CNNscore>
0.8559687138

> <CNNaffinity>
8.4724941254

> <CNN_VS>
7.2521901131

> <CNNaffinity_variance>
0.9363303185

$$$$



 50 54  0  0  0  0  0  0  0  0999 V2000
   13.1491    4.5463   12.4237 C   0  0  0  0  0  0  0  0  0  0  0  0
   13.8193    4.6089   11.2141 C   0  0  0  0  0  0  0  0  0  0  0  0
   13.3049    4.4469    9.8218 C   0  0  0  0  0  0  0  0  0  0  0  0
   15.1470    4.8719   11.5035 N   0  0  0  0  0  0  0  0  0  0  0  0
   15.3370    4.9566   12.8764 C   0  0  0  0  0  0  0  0  0  0  0  0
   16.4992    5.1840   13.6443 C   0  0  0  0  0  0  0  0  0  0  0  0
   16.3709    5.2005   15.0395 C   0  0  0  0  0  0  0  0  0  0  0  0
   15.1415    4.9683   15.6515 C   0  0  0  0  0  0  0  0  0  0  0  0
   13.9951    4.7564   14.8804 C   0  0  0  0  0  0  0  0  0  0  0  0
   14.0856    4.7549   13.4724 C   0  0  0  0  0  0  0  0  0  0  0  0
    8.0957    5.7339   11.1914 C   0  0  0  0  0  0  0  0  0  0  0  0
    9.2261    6.2977   10.5914 C   0  0  0  0  0  0  0  0  0  0  0  0
   10.5290    5.9112   10.9675 C   0  0  0  0  0  0  0  0  0  0  0  0
   10.6754    4.9386   11.9677 C   0  0  0  0  0  0  0  0  0  0  0  0
   11.7272    4.2829   12.6469 C   0  0  0  0  0  0  0  0  0  0  0  0
   11.2857    3.3866   13.5374 N   0  0  0  0  0  0  0  0  0  0  0  0
    9.8965    3.4643   13.4668 O   0  0  0  0  0  0  0  0  0  0  0  0
    9.5383    4.3894   12.5311 C   0  0  0  0  0  0  0  0  0  0  0  0
    8.2389    4.7556   12.1835 C   0  0  0  0  0  0  0  0  0  0  0  0
    6.3666    7.3681   11.2163 C   0  0  0  0  0  0  0  0  0  0  0  0
    6.7929    6.0507   10.9023 O   0  0  0  0  0  0  0  0  0  0  0  0
   16.2044    5.0337   10.4997 C   0  0  0  0  0  0  0  0  0  0  0  0
   16.4104    6.4810   10.0780 C   0  0  0  0  0  0  0  0  0  0  0  0
   15.3798    7.4402   10.2207 C   0  0  0  0  0  0  0  0  0  0  0  0
   15.5759    8.7778    9.8695 C   0  0  0  0  0  0  0  0  0  0  0  0
   16.8131    9.1784    9.3717 C   0  0  0  0  0  0  0  0  0  0  0  0
   17.8423    8.2489    9.2203 C   0  0  0  0  0  0  0  0  0  0  0  0
   17.6507    6.9135    9.5841 C   0  0  0  0  0  0  0  0  0  0  0  0
   18.9968    5.8448    9.4077 Cl  0  0  0  0  0  0  0  0  0  0  0  0
   14.6723    9.7899   10.0357 O   0  0  0  0  0  0  0  0  0  0  0  0
   15.0295   11.1378    9.6780 C   0  0  0  0  0  0  0  0  0  0  0  0
   14.5664   12.0800   10.7916 C   0  0  0  0  0  0  0  0  0  0  0  0
   14.2557   11.4651    8.3681 C   0  0  0  0  0  0  0  0  0  0  0  0
   15.0235   12.4974    7.3348 N   0  0  0  0  0  0  0  0  0  0  0  0
   16.5402   12.3264    7.4917 C   0  0  0  0  0  0  0  0  0  0  0  0
   14.6457   13.8966    7.8117 C   0  0  0  0  0  0  0  0  0  0  0  0
   14.5119   12.0955    5.9547 C   0  0  0  0  0  0  0  0  0  0  0  0
   14.8579   12.8514    4.6709 N   0  0  0  0  0  0  0  0  0  0  0  0
   16.2631   13.3875    4.5570 C   0  0  0  0  0  0  0  0  0  0  0  0
   13.9142   14.0962    4.5549 C   0  0  0  0  0  0  0  0  0  0  0  0
   14.4684   12.0197    3.4054 C   0  0  0  0  0  0  0  0  0  0  0  0
   14.3200   12.6181    2.0148 N   0  0  0  0  0  0  0  0  0  0  0  0
   14.4965   11.3884    1.0298 C   0  0  0  0  0  0  0  0  0  0  0  0
   15.3797   13.6214    1.5816 C   0  0  0  0  0  0  0  0  0  0  0  0
   12.9260   13.1713    1.6655 C   0  0  0  0  0  0  0  0  0  0  0  0
   17.4462    5.3434   15.8732 O   0  0  0  0  0  0  0  0  0  0  0  0
   17.9655    4.1160   16.3494 C   0  0  0  0  0  0  0  0  0  0  0  0
   17.4028    3.0531   15.7050 F   0  0  0  0  0  0  0  0  0  0  0  0
   17.7486    3.9291   17.6759 F   0  0  0  0  0  0  0  0  0  0  0  0
   19.2961    4.0548   16.1281 F   0  0  0  0  0  0  0  0  0  0  0  0
 20 21  1  0
 21 11  1  0
 11 12  2  0
 12 13  1  0
 13 14  2  0
 14 15  1  0
 15  1  1  0
  1  2  2  0
  2  3  1  0
  2  4  1  0
  4 22  1  0
 22 23  1  0
 23 24  2  0
 24 25  1  0
 25 30  1  0
 30 31  1  0
 31 32  1  0
 31 33  1  0
 33 34  1  0
 34 35  1  0
 34 36  1  0
 34 37  1  0
 37 38  1  0
 38 39  1  0
 38 40  1  0
 38 41  1  0
 41 42  1  0
 42 43  1  0
 42 44  1  0
 42 45  1  0
 25 26  2  0
 26 27  1  0
 27 28  2  0
 28 29  1  0
  4  5  1  0
  5  6  2  0
  6  7  1  0
  7 46  1  0
 46 47  1  0
 47 48  1  0
 47 49  1  0
 47 50  1  0
  7  8  2  0
  8  9  1  0
  9 10  2  0
 15 16  2  0
 16 17  1  0
 17 18  1  0
 18 19  2  0
 19 11  1  0
 18 14  1  0
 10  1  1  0
 28 23  1  0
 10  5  1  0
M  CHG 1  34   1
M  CHG 1  38   1
M  CHG 1  42   1
M  END
> <minimizedAffinity>
-9.68931

> <CNNscore>
0.5873303413

> <CNNaffinity>
7.8713755608

> <CNN_VS>
4.6230978966

> <CNNaffinity_variance>
0.8920004964

$$$$



 50 54  0  0  0  0  0  0  0  0999 V2000
   13.5888    4.6370   12.2962 C   0  0  0  0  0  0  0  0  0  0  0  0
   14.3695    4.5808   11.1545 C   0  0  0  0  0  0  0  0  0  0  0  0
   13.9702    4.4141    9.7254 C   0  0  0  0  0  0  0  0  0  0  0  0
   15.6855    4.7191   11.5604 N   0  0  0  0  0  0  0  0  0  0  0  0
   15.7571    4.8411   12.9417 C   0  0  0  0  0  0  0  0  0  0  0  0
   16.8618    4.9810   13.8090 C   0  0  0  0  0  0  0  0  0  0  0  0
   16.6090    5.0685   15.1845 C   0  0  0  0  0  0  0  0  0  0  0  0
   15.3113    4.9881   15.6839 C   0  0  0  0  0  0  0  0  0  0  0  0
   14.2242    4.8620   14.8143 C   0  0  0  0  0  0  0  0  0  0  0  0
   14.4423    4.7928   13.4221 C   0  0  0  0  0  0  0  0  0  0  0  0
    8.8221    6.2746   10.5461 C   0  0  0  0  0  0  0  0  0  0  0  0
   10.0556    6.6940   10.0379 C   0  0  0  0  0  0  0  0  0  0  0  0
   11.2707    6.1945   10.5499 C   0  0  0  0  0  0  0  0  0  0  0  0
   11.2221    5.2572   11.5924 C   0  0  0  0  0  0  0  0  0  0  0  0
   12.1327    4.5291   12.3914 C   0  0  0  0  0  0  0  0  0  0  0  0
   11.5199    3.7224   13.2659 N   0  0  0  0  0  0  0  0  0  0  0  0
   10.1588    3.9371   13.0602 O   0  0  0  0  0  0  0  0  0  0  0  0
    9.9869    4.8514   12.0631 C   0  0  0  0  0  0  0  0  0  0  0  0
    8.7704    5.3316   11.5805 C   0  0  0  0  0  0  0  0  0  0  0  0
    6.5976    6.8943   11.1195 C   0  0  0  0  0  0  0  0  0  0  0  0
    7.5917    6.7086   10.1230 O   0  0  0  0  0  0  0  0  0  0  0  0
   16.8412    4.7308   10.6571 C   0  0  0  0  0  0  0  0  0  0  0  0
   17.1830    6.1214   10.1431 C   0  0  0  0  0  0  0  0  0  0  0  0
   16.4212    7.2516   10.5236 C   0  0  0  0  0  0  0  0  0  0  0  0
   16.7529    8.5352   10.0842 C   0  0  0  0  0  0  0  0  0  0  0  0
   17.8594    8.7086    9.2568 C   0  0  0  0  0  0  0  0  0  0  0  0
   18.6229    7.6081    8.8671 C   0  0  0  0  0  0  0  0  0  0  0  0
   18.2992    6.3255    9.3174 C   0  0  0  0  0  0  0  0  0  0  0  0
   19.3303    5.0302    8.8233 Cl  0  0  0  0  0  0  0  0  0  0  0  0
   16.1270    9.6937   10.4511 O   0  0  0  0  0  0  0  0  0  0  0  0
   15.0208   10.1896    9.6747 C   0  0  0  0  0  0  0  0  0  0  0  0
   14.0618    9.0309    9.3915 C   0  0  0  0  0  0  0  0  0  0  0  0
   15.6200   10.7048    8.3342 C   0  0  0  0  0  0  0  0  0  0  0  0
   15.6557   12.3456    8.1622 N   0  0  0  0  0  0  0  0  0  0  0  0
   15.8616   12.9889    9.5398 C   0  0  0  0  0  0  0  0  0  0  0  0
   14.2673   12.7259    7.6567 C   0  0  0  0  0  0  0  0  0  0  0  0
   16.8141   12.5965    7.2013 C   0  0  0  0  0  0  0  0  0  0  0  0
   18.2817   12.6131    7.6315 N   0  0  0  0  0  0  0  0  0  0  0  0
   18.7933   11.3868    8.3454 C   0  0  0  0  0  0  0  0  0  0  0  0
   18.4979   13.8066    8.6227 C   0  0  0  0  0  0  0  0  0  0  0  0
   19.2142   12.9994    6.4373 C   0  0  0  0  0  0  0  0  0  0  0  0
   18.7121   13.2666    5.0265 N   0  0  0  0  0  0  0  0  0  0  0  0
   18.2856   14.7935    5.0367 C   0  0  0  0  0  0  0  0  0  0  0  0
   17.4634   12.5147    4.5874 C   0  0  0  0  0  0  0  0  0  0  0  0
   19.7695   13.1880    3.9097 C   0  0  0  0  0  0  0  0  0  0  0  0
   17.6127    5.1358   16.1117 O   0  0  0  0  0  0  0  0  0  0  0  0
   17.9556    3.8826   16.6728 C   0  0  0  0  0  0  0  0  0  0  0  0
   19.3084    3.7324   16.7680 F   0  0  0  0  0  0  0  0  0  0  0  0
   17.4955    2.8336   15.9452 F   0  0  0  0  0  0  0  0  0  0  0  0
   17.4561    3.7786   17.9230 F   0  0  0  0  0  0  0  0  0  0  0  0
 20 21  1  0
 21 11  1  0
 11 12  2  0
 12 13  1  0
 13 14  2  0
 14 15  1  0
 15  1  1  0
  1  2  2  0
  2  3  1  0
  2  4  1  0
  4 22  1  0
 22 23  1  0
 23 24  2  0
 24 25  1  0
 25 30  1  0
 30 31  1  0
 31 32  1  0
 31 33  1  0
 33 34  1  0
 34 35  1  0
 34 36  1  0
 34 37  1  0
 37 38  1  0
 38 39  1  0
 38 40  1  0
 38 41  1  0
 41 42  1  0
 42 43  1  0
 42 44  1  0
 42 45  1  0
 25 26  2  0
 26 27  1  0
 27 28  2  0
 28 29  1  0
  4  5  1  0
  5  6  2  0
  6  7  1  0
  7 46  1  0
 46 47  1  0
 47 48  1  0
 47 49  1  0
 47 50  1  0
  7  8  2  0
  8  9  1  0
  9 10  2  0
 15 16  2  0
 16 17  1  0
 17 18  1  0
 18 19  2  0
 19 11  1  0
 18 14  1  0
 10  1  1  0
 28 23  1  0
 10  5  1  0
M  CHG 1  34   1
M  CHG 1  38   1
M  CHG 1  42   1
M  END
> <minimizedAffinity>
-10.00121

> <CNNscore>
0.5519548059

> <CNNaffinity>
7.9502334595

> <CNN_VS>
4.3881697655

> <CNNaffinity_variance>
1.4542032480

$$$$



 50 54  0  0  0  0  0  0  0  0999 V2000
   13.2934    4.6508   12.3570 C   0  0  0  0  0  0  0  0  0  0  0  0
   14.0303    4.7205   11.1873 C   0  0  0  0  0  0  0  0  0  0  0  0
   13.5867    4.6175    9.7653 C   0  0  0  0  0  0  0  0  0  0  0  0
   15.3494    4.9229   11.5548 N   0  0  0  0  0  0  0  0  0  0  0  0
   15.4673    4.9619   12.9378 C   0  0  0  0  0  0  0  0  0  0  0  0
   16.5939    5.1221   13.7729 C   0  0  0  0  0  0  0  0  0  0  0  0
   16.3905    5.1049   15.1592 C   0  0  0  0  0  0  0  0  0  0  0  0
   15.1217    4.9044   15.6976 C   0  0  0  0  0  0  0  0  0  0  0  0
   14.0118    4.7592   14.8605 C   0  0  0  0  0  0  0  0  0  0  0  0
   14.1787    4.7933   13.4599 C   0  0  0  0  0  0  0  0  0  0  0  0
    8.3673    5.9779   10.7956 C   0  0  0  0  0  0  0  0  0  0  0  0
    9.5505    6.4939   10.2575 C   0  0  0  0  0  0  0  0  0  0  0  0
   10.8143    6.0725   10.7196 C   0  0  0  0  0  0  0  0  0  0  0  0
   10.8667    5.1141   11.7426 C   0  0  0  0  0  0  0  0  0  0  0  0
   11.8526    4.4375   12.4962 C   0  0  0  0  0  0  0  0  0  0  0  0
   11.3278    3.5723   13.3721 N   0  0  0  0  0  0  0  0  0  0  0  0
    9.9488    3.6934   13.2145 O   0  0  0  0  0  0  0  0  0  0  0  0
    9.6796    4.6123   12.2435 C   0  0  0  0  0  0  0  0  0  0  0  0
    8.4169    5.0138   11.8104 C   0  0  0  0  0  0  0  0  0  0  0  0
    6.4066    7.2412   11.2653 C   0  0  0  0  0  0  0  0  0  0  0  0
    7.0960    6.3312   10.4213 O   0  0  0  0  0  0  0  0  0  0  0  0
   16.4651    5.0708   10.6141 C   0  0  0  0  0  0  0  0  0  0  0  0
   16.7477    6.5199   10.2464 C   0  0  0  0  0  0  0  0  0  0  0  0
   15.8943    7.5647   10.6738 C   0  0  0  0  0  0  0  0  0  0  0  0
   16.1692    8.9000   10.3703 C   0  0  0  0  0  0  0  0  0  0  0  0
   17.3096    9.2118    9.6347 C   0  0  0  0  0  0  0  0  0  0  0  0
   18.1634    8.1975    9.2009 C   0  0  0  0  0  0  0  0  0  0  0  0
   17.8957    6.8627    9.5158 C   0  0  0  0  0  0  0  0  0  0  0  0
   19.0347    5.6797    8.9785 Cl  0  0  0  0  0  0  0  0  0  0  0  0
   15.4502    9.9820   10.7955 O   0  0  0  0  0  0  0  0  0  0  0  0
   14.6561   10.7307    9.8568 C   0  0  0  0  0  0  0  0  0  0  0  0
   14.7576   10.0609    8.4844 C   0  0  0  0  0  0  0  0  0  0  0  0
   15.2832   12.1532    9.7859 C   0  0  0  0  0  0  0  0  0  0  0  0
   14.2019   13.3979    9.7178 N   0  0  0  0  0  0  0  0  0  0  0  0
   12.9202   12.9883   10.4550 C   0  0  0  0  0  0  0  0  0  0  0  0
   13.8731   13.5625    8.2371 C   0  0  0  0  0  0  0  0  0  0  0  0
   14.9306   14.5638   10.3794 C   0  0  0  0  0  0  0  0  0  0  0  0
   14.2377   15.8544   10.8192 N   0  0  0  0  0  0  0  0  0  0  0  0
   13.1686   15.7245   11.8752 C   0  0  0  0  0  0  0  0  0  0  0  0
   13.5338   16.4924    9.5738 C   0  0  0  0  0  0  0  0  0  0  0  0
   15.2830   16.9503   11.2081 C   0  0  0  0  0  0  0  0  0  0  0  0
   15.8209   17.1412   12.6181 N   0  0  0  0  0  0  0  0  0  0  0  0
   17.1261   18.0216   12.4320 C   0  0  0  0  0  0  0  0  0  0  0  0
   16.2929   15.8919   13.3488 C   0  0  0  0  0  0  0  0  0  0  0  0
   14.9435   17.9807   13.5652 C   0  0  0  0  0  0  0  0  0  0  0  0
   17.4235    5.1822   16.0529 O   0  0  0  0  0  0  0  0  0  0  0  0
   17.8333    3.9264   16.5606 C   0  0  0  0  0  0  0  0  0  0  0  0
   17.2839    2.8985   15.8511 F   0  0  0  0  0  0  0  0  0  0  0  0
   17.4805    3.7395   17.8575 F   0  0  0  0  0  0  0  0  0  0  0  0
   19.1745    3.8003   16.4672 F   0  0  0  0  0  0  0  0  0  0  0  0
 20 21  1  0
 21 11  1  0
 11 12  2  0
 12 13  1  0
 13 14  2  0
 14 15  1  0
 15  1  1  0
  1  2  2  0
  2  3  1  0
  2  4  1  0
  4 22  1  0
 22 23  1  0
 23 24  2  0
 24 25  1  0
 25 30  1  0
 30 31  1  0
 31 32  1  0
 31 33  1  0
 33 34  1  0
 34 35  1  0
 34 36  1  0
 34 37  1  0
 37 38  1  0
 38 39  1  0
 38 40  1  0
 38 41  1  0
 41 42  1  0
 42 43  1  0
 42 44  1  0
 42 45  1  0
 25 26  2  0
 26 27  1  0
 27 28  2  0
 28 29  1  0
  4  5  1  0
  5  6  2  0
  6  7  1  0
  7 46  1  0
 46 47  1  0
 47 48  1  0
 47 49  1  0
 47 50  1  0
  7  8  2  0
  8  9  1  0
  9 10  2  0
 15 16  2  0
 16 17  1  0
 17 18  1  0
 18 19  2  0
 19 11  1  0
 18 14  1  0
 10  1  1  0
 28 23  1  0
 10  5  1  0
M  CHG 1  34   1
M  CHG 1  38   1
M  CHG 1  42   1
M  END
> <minimizedAffinity>
-10.09340

> <CNNscore>
0.5233734846

> <CNNaffinity>
8.0332574844

> <CNN_VS>
4.2043938637

> <CNNaffinity_variance>
1.0165017843

$$$$
