


 26 28  0  0  0  0  0  0  0  0999 V2000
   30.7382   -5.7331   16.5864 C   0  0  0  0  0  0  0  0  0  0  0  0
   31.0714   -5.0900   17.9273 C   0  0  0  0  0  0  0  0  0  0  0  0
   32.0127   -3.9325   17.7728 C   0  0  0  0  0  0  0  0  0  0  0  0
   33.3283   -3.9599   17.6758 N   0  0  0  0  0  0  0  0  0  0  0  0
   33.7222   -2.6500   17.5520 C   0  0  0  0  0  0  0  0  0  0  0  0
   35.0092   -2.1138   17.4144 C   0  0  0  0  0  0  0  0  0  0  0  0
   35.1337   -0.7263   17.2994 C   0  0  0  0  0  0  0  0  0  0  0  0
   36.7026   -0.0334   17.1275 Cl  0  0  0  0  0  0  0  0  0  0  0  0
   34.0151    0.1115   17.3191 C   0  0  0  0  0  0  0  0  0  0  0  0
   32.7236   -0.4109   17.4564 C   0  0  0  0  0  0  0  0  0  0  0  0
   32.6237   -1.7983   17.5721 C   0  0  0  0  0  0  0  0  0  0  0  0
   31.5500   -2.6368   17.7163 N   0  0  0  0  0  0  0  0  0  0  0  0
   30.6069   -2.3597   17.7704 H   0  0  0  0  0  0  0  0  0  0  0  0
   29.8367   -4.5958   18.4844 O   0  0  0  0  0  0  0  0  0  0  0  0
   29.5875   -4.9359   19.7744 C   0  0  0  0  0  0  0  0  0  0  0  0
   29.8448   -6.0317   20.2514 O   0  0  0  0  0  0  0  0  0  0  0  0
   29.0383   -3.8542   20.3999 N   0  0  0  0  0  0  0  0  0  0  0  0
   28.9187   -3.0527   19.8408 H   0  0  0  0  0  0  0  0  0  0  0  0
   28.6212   -3.7332   21.7357 C   0  0  0  0  0  0  0  0  0  0  0  0
   29.5945   -3.9096   22.7263 C   0  0  0  0  0  0  0  0  0  0  0  0
   29.2607   -3.8061   24.0800 C   0  0  0  0  0  0  0  0  0  0  0  0
   27.9474   -3.5236   24.4584 C   0  0  0  0  0  0  0  0  0  0  0  0
   27.6028   -3.4095   26.1466 Cl  0  0  0  0  0  0  0  0  0  0  0  0
   26.9696   -3.3446   23.4754 C   0  0  0  0  0  0  0  0  0  0  0  0
   25.3227   -2.9914   23.8673 Cl  0  0  0  0  0  0  0  0  0  0  0  0
   27.3080   -3.4490   22.1189 C   0  0  0  0  0  0  0  0  0  0  0  0
  2  1  1  0
  2 14  1  0
 14 15  1  0
 15 16  2  0
 15 17  1  0
 17 19  1  0
 19 20  2  0
 20 21  1  0
 21 22  2  0
 22 23  1  0
 22 24  1  0
 24 25  1  0
 24 26  2  0
  2  3  1  0
  3  4  2  0
  4  5  1  0
  5  6  2  0
  6  7  1  0
  7  8  1  0
  7  9  2  0
  9 10  1  0
 10 11  2  0
 11 12  1  0
 26 19  1  0
 12  3  1  0
 11  5  1  0
 17 18  1  0
 12 13  1  0
M  END
> <minimizedAffinity>
-7.93533

> <CNNscore>
0.9679774046

> <CNNaffinity>
5.9878802299

> <CNN_VS>
5.7961325645

> <CNNaffinity_variance>
0.5028724670

$$$$



 26 28  0  0  0  0  0  0  0  0999 V2000
   29.3995   -6.0888   16.6214 C   0  0  0  0  0  0  0  0  0  0  0  0
   30.1001   -6.0094   17.9727 C   0  0  0  0  0  0  0  0  0  0  0  0
   31.5655   -5.7251   17.8259 C   0  0  0  0  0  0  0  0  0  0  0  0
   32.5603   -6.5895   17.7603 N   0  0  0  0  0  0  0  0  0  0  0  0
   33.7020   -5.8375   17.6295 C   0  0  0  0  0  0  0  0  0  0  0  0
   35.0357   -6.2513   17.5156 C   0  0  0  0  0  0  0  0  0  0  0  0
   36.0198   -5.2672   17.3862 C   0  0  0  0  0  0  0  0  0  0  0  0
   37.6708   -5.7416   17.2428 Cl  0  0  0  0  0  0  0  0  0  0  0  0
   35.6956   -3.9078   17.3690 C   0  0  0  0  0  0  0  0  0  0  0  0
   34.3673   -3.4804   17.4823 C   0  0  0  0  0  0  0  0  0  0  0  0
   33.4021   -4.4802   17.6130 C   0  0  0  0  0  0  0  0  0  0  0  0
   32.0391   -4.4348   17.7423 N   0  0  0  0  0  0  0  0  0  0  0  0
   31.4907   -3.6177   17.7706 H   0  0  0  0  0  0  0  0  0  0  0  0
   29.5005   -4.9204   18.7032 O   0  0  0  0  0  0  0  0  0  0  0  0
   29.2410   -5.1549   20.0145 C   0  0  0  0  0  0  0  0  0  0  0  0
   29.3762   -6.2451   20.5509 O   0  0  0  0  0  0  0  0  0  0  0  0
   28.8386   -3.9814   20.5838 N   0  0  0  0  0  0  0  0  0  0  0  0
   28.8032   -3.2041   19.9806 H   0  0  0  0  0  0  0  0  0  0  0  0
   28.4684   -3.7361   21.9164 C   0  0  0  0  0  0  0  0  0  0  0  0
   29.4777   -3.8136   22.8833 C   0  0  0  0  0  0  0  0  0  0  0  0
   29.1914   -3.5836   24.2323 C   0  0  0  0  0  0  0  0  0  0  0  0
   27.8903   -3.2721   24.6296 C   0  0  0  0  0  0  0  0  0  0  0  0
   27.6051   -2.9999   26.3107 Cl  0  0  0  0  0  0  0  0  0  0  0  0
   26.8768   -3.1913   23.6700 C   0  0  0  0  0  0  0  0  0  0  0  0
   25.2422   -2.8095   24.0860 Cl  0  0  0  0  0  0  0  0  0  0  0  0
   27.1676   -3.4225   22.3181 C   0  0  0  0  0  0  0  0  0  0  0  0
  2  1  1  0
  2 14  1  0
 14 15  1  0
 15 16  2  0
 15 17  1  0
 17 19  1  0
 19 20  2  0
 20 21  1  0
 21 22  2  0
 22 23  1  0
 22 24  1  0
 24 25  1  0
 24 26  2  0
  2  3  1  0
  3  4  2  0
  4  5  1  0
  5  6  2  0
  6  7  1  0
  7  8  1  0
  7  9  2  0
  9 10  1  0
 10 11  2  0
 11 12  1  0
 26 19  1  0
 12  3  1  0
 11  5  1  0
 17 18  1  0
 12 13  1  0
M  END
> <minimizedAffinity>
-6.43661

> <CNNscore>
0.8935511112

> <CNNaffinity>
6.4344520569

> <CNN_VS>
5.7495117188

> <CNNaffinity_variance>
0.0365047343

$$$$



 26 28  0  0  0  0  0  0  0  0999 V2000
   30.6302   -3.8370   17.4768 C   0  0  0  0  0  0  0  0  0  0  0  0
   29.5974   -4.8606   17.9336 C   0  0  0  0  0  0  0  0  0  0  0  0
   29.1172   -5.7143   16.7977 C   0  0  0  0  0  0  0  0  0  0  0  0
   28.5090   -6.8837   16.8583 N   0  0  0  0  0  0  0  0  0  0  0  0
   28.2770   -7.2533   15.5560 C   0  0  0  0  0  0  0  0  0  0  0  0
   27.6587   -8.4046   15.0511 C   0  0  0  0  0  0  0  0  0  0  0  0
   27.5430   -8.5334   13.6641 C   0  0  0  0  0  0  0  0  0  0  0  0
   26.7866   -9.9370   13.0093 Cl  0  0  0  0  0  0  0  0  0  0  0  0
   28.0254   -7.5495   12.7965 C   0  0  0  0  0  0  0  0  0  0  0  0
   28.6456   -6.3944   13.2874 C   0  0  0  0  0  0  0  0  0  0  0  0
   28.7522   -6.2886   14.6751 C   0  0  0  0  0  0  0  0  0  0  0  0
   29.2841   -5.3228   15.4881 N   0  0  0  0  0  0  0  0  0  0  0  0
   29.7131   -4.4894   15.1870 H   0  0  0  0  0  0  0  0  0  0  0  0
   30.2401   -5.7161   18.9001 O   0  0  0  0  0  0  0  0  0  0  0  0
   29.6299   -5.8125   20.1084 C   0  0  0  0  0  0  0  0  0  0  0  0
   29.2394   -6.8653   20.5919 O   0  0  0  0  0  0  0  0  0  0  0  0
   29.5636   -4.5619   20.6512 N   0  0  0  0  0  0  0  0  0  0  0  0
   29.9461   -3.8381   20.1044 H   0  0  0  0  0  0  0  0  0  0  0  0
   29.0219   -4.1710   21.8869 C   0  0  0  0  0  0  0  0  0  0  0  0
   29.8826   -4.1756   22.9908 C   0  0  0  0  0  0  0  0  0  0  0  0
   29.4210   -3.8004   24.2560 C   0  0  0  0  0  0  0  0  0  0  0  0
   28.0912   -3.4150   24.4311 C   0  0  0  0  0  0  0  0  0  0  0  0
   27.5861   -2.9637   26.0195 Cl  0  0  0  0  0  0  0  0  0  0  0  0
   27.2254   -3.4062   23.3335 C   0  0  0  0  0  0  0  0  0  0  0  0
   25.5659   -2.9401   23.4727 Cl  0  0  0  0  0  0  0  0  0  0  0  0
   27.6917   -3.7829   22.0662 C   0  0  0  0  0  0  0  0  0  0  0  0
  2  1  1  0
  2 14  1  0
 14 15  1  0
 15 16  2  0
 15 17  1  0
 17 19  1  0
 19 20  2  0
 20 21  1  0
 21 22  2  0
 22 23  1  0
 22 24  1  0
 24 25  1  0
 24 26  2  0
  2  3  1  0
  3  4  2  0
  4  5  1  0
  5  6  2  0
  6  7  1  0
  7  8  1  0
  7  9  2  0
  9 10  1  0
 10 11  2  0
 11 12  1  0
 26 19  1  0
 12  3  1  0
 11  5  1  0
 17 18  1  0
 12 13  1  0
M  END
> <minimizedAffinity>
-6.14960

> <CNNscore>
0.8513492346

> <CNNaffinity>
6.0546402931

> <CNN_VS>
5.1546134949

> <CNNaffinity_variance>
0.0075288755

$$$$



 26 28  0  0  0  0  0  0  0  0999 V2000
   27.8770  -11.8023   19.5575 C   0  0  0  0  0  0  0  0  0  0  0  0
   27.7285  -10.2880   19.6458 C   0  0  0  0  0  0  0  0  0  0  0  0
   26.3339   -9.8437   19.3179 C   0  0  0  0  0  0  0  0  0  0  0  0
   25.9037   -9.2572   18.2169 N   0  0  0  0  0  0  0  0  0  0  0  0
   24.5582   -9.0534   18.4023 C   0  0  0  0  0  0  0  0  0  0  0  0
   23.6169   -8.4696   17.5444 C   0  0  0  0  0  0  0  0  0  0  0  0
   22.2914   -8.3895   17.9808 C   0  0  0  0  0  0  0  0  0  0  0  0
   21.1074   -7.6780   16.9497 Cl  0  0  0  0  0  0  0  0  0  0  0  0
   21.9042   -8.8744   19.2332 C   0  0  0  0  0  0  0  0  0  0  0  0
   22.8344   -9.4597   20.1004 C   0  0  0  0  0  0  0  0  0  0  0  0
   24.1520   -9.5266   19.6448 C   0  0  0  0  0  0  0  0  0  0  0  0
   25.2986  -10.0209   20.2082 N   0  0  0  0  0  0  0  0  0  0  0  0
   25.3703  -10.4333   21.0993 H   0  0  0  0  0  0  0  0  0  0  0  0
   28.0144   -9.9078   21.0070 O   0  0  0  0  0  0  0  0  0  0  0  0
   28.3043   -8.5977   21.2106 C   0  0  0  0  0  0  0  0  0  0  0  0
   28.8496   -7.8842   20.3811 O   0  0  0  0  0  0  0  0  0  0  0  0
   27.8673   -8.2554   22.4576 N   0  0  0  0  0  0  0  0  0  0  0  0
   27.4407   -8.9770   22.9738 H   0  0  0  0  0  0  0  0  0  0  0  0
   27.9459   -7.0096   23.1017 C   0  0  0  0  0  0  0  0  0  0  0  0
   26.9452   -6.7091   24.0334 C   0  0  0  0  0  0  0  0  0  0  0  0
   26.9511   -5.4897   24.7172 C   0  0  0  0  0  0  0  0  0  0  0  0
   27.9602   -4.5561   24.4769 C   0  0  0  0  0  0  0  0  0  0  0  0
   27.9082   -3.0702   25.3550 Cl  0  0  0  0  0  0  0  0  0  0  0  0
   28.9641   -4.8490   23.5491 C   0  0  0  0  0  0  0  0  0  0  0  0
   30.2469   -3.7431   23.1994 Cl  0  0  0  0  0  0  0  0  0  0  0  0
   28.9552   -6.0729   22.8653 C   0  0  0  0  0  0  0  0  0  0  0  0
  2  1  1  0
  2 14  1  0
 14 15  1  0
 15 16  2  0
 15 17  1  0
 17 19  1  0
 19 20  2  0
 20 21  1  0
 21 22  2  0
 22 23  1  0
 22 24  1  0
 24 25  1  0
 24 26  2  0
  2  3  1  0
  3  4  2  0
  4  5  1  0
  5  6  2  0
  6  7  1  0
  7  8  1  0
  7  9  2  0
  9 10  1  0
 10 11  2  0
 11 12  1  0
 26 19  1  0
 12  3  1  0
 11  5  1  0
 17 18  1  0
 12 13  1  0
M  END
> <minimizedAffinity>
-4.45044

> <CNNscore>
0.7984114885

> <CNNaffinity>
6.3921942711

> <CNN_VS>
5.1036014557

> <CNNaffinity_variance>
0.3261195123

$$$$



 26 28  0  0  0  0  0  0  0  0999 V2000
   25.1619  -10.9802   21.4420 C   0  0  0  0  0  0  0  0  0  0  0  0
   25.1413   -9.7447   22.3341 C   0  0  0  0  0  0  0  0  0  0  0  0
   24.0279   -9.7992   23.3377 C   0  0  0  0  0  0  0  0  0  0  0  0
   23.5422  -10.8574   23.9586 N   0  0  0  0  0  0  0  0  0  0  0  0
   22.5389  -10.3878   24.7704 C   0  0  0  0  0  0  0  0  0  0  0  0
   21.6986  -11.0866   25.6469 C   0  0  0  0  0  0  0  0  0  0  0  0
   20.7514  -10.3567   26.3705 C   0  0  0  0  0  0  0  0  0  0  0  0
   19.7022  -11.1851   27.4587 Cl  0  0  0  0  0  0  0  0  0  0  0  0
   20.6367   -8.9705   26.2329 C   0  0  0  0  0  0  0  0  0  0  0  0
   21.4695   -8.2598   25.3605 C   0  0  0  0  0  0  0  0  0  0  0  0
   22.4058   -9.0095   24.6467 C   0  0  0  0  0  0  0  0  0  0  0  0
   23.3606   -8.6600   23.7287 N   0  0  0  0  0  0  0  0  0  0  0  0
   23.5395   -7.7481   23.4034 H   0  0  0  0  0  0  0  0  0  0  0  0
   26.3924   -9.7120   23.0502 O   0  0  0  0  0  0  0  0  0  0  0  0
   27.0100   -8.5052   23.1145 C   0  0  0  0  0  0  0  0  0  0  0  0
   27.9252   -8.1686   22.3772 O   0  0  0  0  0  0  0  0  0  0  0  0
   26.4172   -7.7776   24.1056 N   0  0  0  0  0  0  0  0  0  0  0  0
   25.6827   -8.2261   24.5838 H   0  0  0  0  0  0  0  0  0  0  0  0
   26.7164   -6.4736   24.5334 C   0  0  0  0  0  0  0  0  0  0  0  0
   27.8534   -6.3099   25.3334 C   0  0  0  0  0  0  0  0  0  0  0  0
   28.2198   -5.0442   25.8009 C   0  0  0  0  0  0  0  0  0  0  0  0
   27.4520   -3.9262   25.4719 C   0  0  0  0  0  0  0  0  0  0  0  0
   27.9600   -2.3928   26.0820 Cl  0  0  0  0  0  0  0  0  0  0  0  0
   26.3157   -4.0808   24.6723 C   0  0  0  0  0  0  0  0  0  0  0  0
   25.3164   -2.7430   24.2227 Cl  0  0  0  0  0  0  0  0  0  0  0  0
   25.9514   -5.3515   24.2052 C   0  0  0  0  0  0  0  0  0  0  0  0
  2  1  1  0
  2 14  1  0
 14 15  1  0
 15 16  2  0
 15 17  1  0
 17 19  1  0
 19 20  2  0
 20 21  1  0
 21 22  2  0
 22 23  1  0
 22 24  1  0
 24 25  1  0
 24 26  2  0
  2  3  1  0
  3  4  2  0
  4  5  1  0
  5  6  2  0
  6  7  1  0
  7  8  1  0
  7  9  2  0
  9 10  1  0
 10 11  2  0
 11 12  1  0
 26 19  1  0
 12  3  1  0
 11  5  1  0
 17 18  1  0
 12 13  1  0
M  END
> <minimizedAffinity>
-4.91910

> <CNNscore>
0.7545768023

> <CNNaffinity>
6.1890492439

> <CNN_VS>
4.6701130867

> <CNNaffinity_variance>
0.0785995498

$$$$



 26 28  0  0  0  0  0  0  0  0999 V2000
   30.6964   -7.0069   19.5915 C   0  0  0  0  0  0  0  0  0  0  0  0
   30.2099   -5.5778   19.3816 C   0  0  0  0  0  0  0  0  0  0  0  0
   29.5549   -5.0246   20.6123 C   0  0  0  0  0  0  0  0  0  0  0  0
   29.9334   -5.1634   21.8687 N   0  0  0  0  0  0  0  0  0  0  0  0
   29.0097   -4.4749   22.6165 C   0  0  0  0  0  0  0  0  0  0  0  0
   28.9381   -4.2968   24.0043 C   0  0  0  0  0  0  0  0  0  0  0  0
   27.8834   -3.5350   24.5151 C   0  0  0  0  0  0  0  0  0  0  0  0
   27.7659   -3.2952   26.2180 Cl  0  0  0  0  0  0  0  0  0  0  0  0
   26.9230   -2.9623   23.6765 C   0  0  0  0  0  0  0  0  0  0  0  0
   26.9823   -3.1326   22.2882 C   0  0  0  0  0  0  0  0  0  0  0  0
   28.0423   -3.8989   21.8011 C   0  0  0  0  0  0  0  0  0  0  0  0
   28.4090   -4.2651   20.5330 N   0  0  0  0  0  0  0  0  0  0  0  0
   27.9336   -4.0257   19.7048 H   0  0  0  0  0  0  0  0  0  0  0  0
   31.3671   -4.7702   19.0851 O   0  0  0  0  0  0  0  0  0  0  0  0
   31.2387   -3.9042   18.0482 C   0  0  0  0  0  0  0  0  0  0  0  0
   30.2644   -3.8648   17.3107 O   0  0  0  0  0  0  0  0  0  0  0  0
   32.3526   -3.1162   18.0130 N   0  0  0  0  0  0  0  0  0  0  0  0
   33.0275   -3.2994   18.7061 H   0  0  0  0  0  0  0  0  0  0  0  0
   32.6635   -2.0785   17.1189 C   0  0  0  0  0  0  0  0  0  0  0  0
   32.8362   -2.4258   15.7738 C   0  0  0  0  0  0  0  0  0  0  0  0
   33.1477   -1.4517   14.8205 C   0  0  0  0  0  0  0  0  0  0  0  0
   33.2894   -0.1169   15.2027 C   0  0  0  0  0  0  0  0  0  0  0  0
   33.6748    1.0353   13.9757 Cl  0  0  0  0  0  0  0  0  0  0  0  0
   33.1171    0.2386   16.5437 C   0  0  0  0  0  0  0  0  0  0  0  0
   33.2756    1.8711   17.0919 Cl  0  0  0  0  0  0  0  0  0  0  0  0
   32.8046   -0.7409   17.4969 C   0  0  0  0  0  0  0  0  0  0  0  0
  2  1  1  0
  2 14  1  0
 14 15  1  0
 15 16  2  0
 15 17  1  0
 17 19  1  0
 19 20  2  0
 20 21  1  0
 21 22  2  0
 22 23  1  0
 22 24  1  0
 24 25  1  0
 24 26  2  0
  2  3  1  0
  3  4  2  0
  4  5  1  0
  5  6  2  0
  6  7  1  0
  7  8  1  0
  7  9  2  0
  9 10  1  0
 10 11  2  0
 11 12  1  0
 26 19  1  0
 12  3  1  0
 11  5  1  0
 17 18  1  0
 12 13  1  0
M  END
> <minimizedAffinity>
-6.49817

> <CNNscore>
0.7421746850

> <CNNaffinity>
6.0182952881

> <CNN_VS>
4.4666266441

> <CNNaffinity_variance>
0.1296635866

$$$$



 26 28  0  0  0  0  0  0  0  0999 V2000
   31.7944   -6.5069   18.5038 C   0  0  0  0  0  0  0  0  0  0  0  0
   31.1566   -5.1233   18.5452 C   0  0  0  0  0  0  0  0  0  0  0  0
   31.3108   -4.3982   17.2413 C   0  0  0  0  0  0  0  0  0  0  0  0
   32.2933   -3.6028   16.8629 N   0  0  0  0  0  0  0  0  0  0  0  0
   31.9729   -3.1894   15.5930 C   0  0  0  0  0  0  0  0  0  0  0  0
   32.6725   -2.3382   14.7278 C   0  0  0  0  0  0  0  0  0  0  0  0
   32.1203   -2.0825   13.4694 C   0  0  0  0  0  0  0  0  0  0  0  0
   32.9556   -1.0404   12.3797 Cl  0  0  0  0  0  0  0  0  0  0  0  0
   30.9073   -2.6536   13.0744 C   0  0  0  0  0  0  0  0  0  0  0  0
   30.1977   -3.5055   13.9290 C   0  0  0  0  0  0  0  0  0  0  0  0
   30.7667   -3.7444   15.1809 C   0  0  0  0  0  0  0  0  0  0  0  0
   30.3647   -4.5056   16.2466 N   0  0  0  0  0  0  0  0  0  0  0  0
   29.5388   -5.0394   16.2933 H   0  0  0  0  0  0  0  0  0  0  0  0
   29.7484   -5.3077   18.7946 O   0  0  0  0  0  0  0  0  0  0  0  0
   29.3905   -5.4713   20.0934 C   0  0  0  0  0  0  0  0  0  0  0  0
   29.3903   -6.5499   20.6689 O   0  0  0  0  0  0  0  0  0  0  0  0
   29.0672   -4.2466   20.6019 N   0  0  0  0  0  0  0  0  0  0  0  0
   29.1409   -3.4909   19.9753 H   0  0  0  0  0  0  0  0  0  0  0  0
   28.6431   -3.9218   21.9011 C   0  0  0  0  0  0  0  0  0  0  0  0
   29.6059   -3.9673   22.9163 C   0  0  0  0  0  0  0  0  0  0  0  0
   29.2646   -3.6586   24.2365 C   0  0  0  0  0  0  0  0  0  0  0  0
   27.9543   -3.2995   24.5561 C   0  0  0  0  0  0  0  0  0  0  0  0
   27.6001   -2.9307   26.2054 Cl  0  0  0  0  0  0  0  0  0  0  0  0
   26.9872   -3.2503   23.5479 C   0  0  0  0  0  0  0  0  0  0  0  0
   25.3447   -2.8132   23.8671 Cl  0  0  0  0  0  0  0  0  0  0  0  0
   27.3330   -3.5603   22.2251 C   0  0  0  0  0  0  0  0  0  0  0  0
  2  1  1  0
  2 14  1  0
 14 15  1  0
 15 16  2  0
 15 17  1  0
 17 19  1  0
 19 20  2  0
 20 21  1  0
 21 22  2  0
 22 23  1  0
 22 24  1  0
 24 25  1  0
 24 26  2  0
  2  3  1  0
  3  4  2  0
  4  5  1  0
  5  6  2  0
  6  7  1  0
  7  8  1  0
  7  9  2  0
  9 10  1  0
 10 11  2  0
 11 12  1  0
 26 19  1  0
 12  3  1  0
 11  5  1  0
 17 18  1  0
 12 13  1  0
M  END
> <minimizedAffinity>
-6.60957

> <CNNscore>
0.7196202278

> <CNNaffinity>
5.7801384926

> <CNN_VS>
4.1595044136

> <CNNaffinity_variance>
0.1613736004

$$$$



 26 28  0  0  0  0  0  0  0  0999 V2000
   29.2177   -9.8460   21.1491 C   0  0  0  0  0  0  0  0  0  0  0  0
   28.0962   -9.4636   22.1077 C   0  0  0  0  0  0  0  0  0  0  0  0
   28.2652   -8.0706   22.6375 C   0  0  0  0  0  0  0  0  0  0  0  0
   27.5139   -7.4375   23.5184 N   0  0  0  0  0  0  0  0  0  0  0  0
   28.0797   -6.1952   23.6692 C   0  0  0  0  0  0  0  0  0  0  0  0
   27.6839   -5.1267   24.4844 C   0  0  0  0  0  0  0  0  0  0  0  0
   28.4501   -3.9581   24.4534 C   0  0  0  0  0  0  0  0  0  0  0  0
   27.9918   -2.6246   25.4448 Cl  0  0  0  0  0  0  0  0  0  0  0  0
   29.5798   -3.8469   23.6381 C   0  0  0  0  0  0  0  0  0  0  0  0
   29.9864   -4.9065   22.8184 C   0  0  0  0  0  0  0  0  0  0  0  0
   29.2050   -6.0621   22.8638 C   0  0  0  0  0  0  0  0  0  0  0  0
   29.2998   -7.2656   22.2162 N   0  0  0  0  0  0  0  0  0  0  0  0
   29.9911   -7.5131   21.5604 H   0  0  0  0  0  0  0  0  0  0  0  0
   26.8610   -9.5169   21.3655 O   0  0  0  0  0  0  0  0  0  0  0  0
   25.8213  -10.1320   21.9837 C   0  0  0  0  0  0  0  0  0  0  0  0
   25.7954  -11.3256   22.2471 O   0  0  0  0  0  0  0  0  0  0  0  0
   24.8706   -9.1904   22.2532 N   0  0  0  0  0  0  0  0  0  0  0  0
   25.0850   -8.2730   21.9674 H   0  0  0  0  0  0  0  0  0  0  0  0
   23.6269   -9.3572   22.8844 C   0  0  0  0  0  0  0  0  0  0  0  0
   22.7178  -10.2339   22.2808 C   0  0  0  0  0  0  0  0  0  0  0  0
   21.4581  -10.4547   22.8458 C   0  0  0  0  0  0  0  0  0  0  0  0
   21.0937   -9.8003   24.0235 C   0  0  0  0  0  0  0  0  0  0  0  0
   19.5235  -10.1177   24.6681 Cl  0  0  0  0  0  0  0  0  0  0  0  0
   21.9964   -8.9243   24.6334 C   0  0  0  0  0  0  0  0  0  0  0  0
   21.6164   -8.0789   26.0935 Cl  0  0  0  0  0  0  0  0  0  0  0  0
   23.2587   -8.7054   24.0641 C   0  0  0  0  0  0  0  0  0  0  0  0
  2  1  1  0
  2 14  1  0
 14 15  1  0
 15 16  2  0
 15 17  1  0
 17 19  1  0
 19 20  2  0
 20 21  1  0
 21 22  2  0
 22 23  1  0
 22 24  1  0
 24 25  1  0
 24 26  2  0
  2  3  1  0
  3  4  2  0
  4  5  1  0
  5  6  2  0
  6  7  1  0
  7  8  1  0
  7  9  2  0
  9 10  1  0
 10 11  2  0
 11 12  1  0
 26 19  1  0
 12  3  1  0
 11  5  1  0
 17 18  1  0
 12 13  1  0
M  END
> <minimizedAffinity>
-4.39942

> <CNNscore>
0.6545725465

> <CNNaffinity>
6.0324854851

> <CNN_VS>
3.9486994743

> <CNNaffinity_variance>
0.1222190335

$$$$



 26 28  0  0  0  0  0  0  0  0999 V2000
   30.2301   -8.2886   27.4359 C   0  0  0  0  0  0  0  0  0  0  0  0
   30.1407   -6.8159   27.8180 C   0  0  0  0  0  0  0  0  0  0  0  0
   29.3889   -6.0181   26.7943 C   0  0  0  0  0  0  0  0  0  0  0  0
   28.1354   -5.6087   26.8407 N   0  0  0  0  0  0  0  0  0  0  0  0
   27.9223   -4.9213   25.6709 C   0  0  0  0  0  0  0  0  0  0  0  0
   26.7659   -4.2775   25.2114 C   0  0  0  0  0  0  0  0  0  0  0  0
   26.8197   -3.6378   23.9698 C   0  0  0  0  0  0  0  0  0  0  0  0
   25.4150   -2.8351   23.3750 Cl  0  0  0  0  0  0  0  0  0  0  0  0
   27.9866   -3.6331   23.2006 C   0  0  0  0  0  0  0  0  0  0  0  0
   29.1490   -4.2727   23.6474 C   0  0  0  0  0  0  0  0  0  0  0  0
   29.0712   -4.9068   24.8884 C   0  0  0  0  0  0  0  0  0  0  0  0
   29.9876   -5.6126   25.6224 N   0  0  0  0  0  0  0  0  0  0  0  0
   30.9172   -5.7985   25.3569 H   0  0  0  0  0  0  0  0  0  0  0  0
   29.4221   -6.7395   29.0658 O   0  0  0  0  0  0  0  0  0  0  0  0
   28.7561   -7.8617   29.4386 C   0  0  0  0  0  0  0  0  0  0  0  0
   29.2743   -8.7944   30.0353 O   0  0  0  0  0  0  0  0  0  0  0  0
   27.4546   -7.7320   29.0482 N   0  0  0  0  0  0  0  0  0  0  0  0
   27.2293   -6.8934   28.5844 H   0  0  0  0  0  0  0  0  0  0  0  0
   26.3942   -8.6369   29.2207 C   0  0  0  0  0  0  0  0  0  0  0  0
   25.5285   -8.4075   30.2966 C   0  0  0  0  0  0  0  0  0  0  0  0
   24.4487   -9.2624   30.5374 C   0  0  0  0  0  0  0  0  0  0  0  0
   24.2222  -10.3577   29.7027 C   0  0  0  0  0  0  0  0  0  0  0  0
   22.8713  -11.3735   30.0562 Cl  0  0  0  0  0  0  0  0  0  0  0  0
   25.0812  -10.5931   28.6252 C   0  0  0  0  0  0  0  0  0  0  0  0
   24.8636  -11.9284   27.5480 Cl  0  0  0  0  0  0  0  0  0  0  0  0
   26.1629   -9.7337   28.3866 C   0  0  0  0  0  0  0  0  0  0  0  0
  2  1  1  0
  2 14  1  0
 14 15  1  0
 15 16  2  0
 15 17  1  0
 17 19  1  0
 19 20  2  0
 20 21  1  0
 21 22  2  0
 22 23  1  0
 22 24  1  0
 24 25  1  0
 24 26  2  0
  2  3  1  0
  3  4  2  0
  4  5  1  0
  5  6  2  0
  6  7  1  0
  7  8  1  0
  7  9  2  0
  9 10  1  0
 10 11  2  0
 11 12  1  0
 26 19  1  0
 12  3  1  0
 11  5  1  0
 17 18  1  0
 12 13  1  0
M  END
> <minimizedAffinity>
-6.51738

> <CNNscore>
0.5646988153

> <CNNaffinity>
5.6787562370

> <CNN_VS>
3.2067868710

> <CNNaffinity_variance>
0.1819671541

$$$$
