


 26 28  0  0  0  0  0  0  0  0999 V2000
   30.5834   -5.5402   16.4093 C   0  0  0  0  0  0  0  0  0  0  0  0
   30.9993   -4.9903   17.7686 C   0  0  0  0  0  0  0  0  0  0  0  0
   31.9644   -3.8497   17.6378 C   0  0  0  0  0  0  0  0  0  0  0  0
   33.2732   -3.9044   17.4799 N   0  0  0  0  0  0  0  0  0  0  0  0
   33.6970   -2.5994   17.4135 C   0  0  0  0  0  0  0  0  0  0  0  0
   34.9911   -2.0876   17.2486 C   0  0  0  0  0  0  0  0  0  0  0  0
   35.1479   -0.6986   17.2076 C   0  0  0  0  0  0  0  0  0  0  0  0
   36.8824    0.0279   16.9850 Br  0  0  0  0  0  0  0  0  0  0  0  0
   34.0549    0.1643   17.3256 C   0  0  0  0  0  0  0  0  0  0  0  0
   32.7574   -0.3345   17.4910 C   0  0  0  0  0  0  0  0  0  0  0  0
   32.6243   -1.7234   17.5318 C   0  0  0  0  0  0  0  0  0  0  0  0
   31.5354   -2.5417   17.6763 N   0  0  0  0  0  0  0  0  0  0  0  0
   30.6034   -2.2449   17.7886 H   0  0  0  0  0  0  0  0  0  0  0  0
   29.8075   -4.5004   18.4156 O   0  0  0  0  0  0  0  0  0  0  0  0
   29.6537   -4.8448   19.7192 C   0  0  0  0  0  0  0  0  0  0  0  0
   30.0856   -5.8799   20.2057 O   0  0  0  0  0  0  0  0  0  0  0  0
   28.9712   -3.8421   20.3451 N   0  0  0  0  0  0  0  0  0  0  0  0
   28.7161   -3.0797   19.7770 H   0  0  0  0  0  0  0  0  0  0  0  0
   28.5846   -3.7541   21.6928 C   0  0  0  0  0  0  0  0  0  0  0  0
   29.5647   -4.0203   22.6562 C   0  0  0  0  0  0  0  0  0  0  0  0
   29.2606   -3.9546   24.0191 C   0  0  0  0  0  0  0  0  0  0  0  0
   27.9707   -3.6205   24.4343 C   0  0  0  0  0  0  0  0  0  0  0  0
   27.6624   -3.5572   26.1322 Cl  0  0  0  0  0  0  0  0  0  0  0  0
   26.9865   -3.3516   23.4786 C   0  0  0  0  0  0  0  0  0  0  0  0
   25.3675   -2.9302   23.9166 Cl  0  0  0  0  0  0  0  0  0  0  0  0
   27.2950   -3.4184   22.1127 C   0  0  0  0  0  0  0  0  0  0  0  0
  2  1  1  0
  2 14  1  0
 14 15  1  0
 15 16  2  0
 15 17  1  0
 17 19  1  0
 19 20  2  0
 20 21  1  0
 21 22  2  0
 22 23  1  0
 22 24  1  0
 24 25  1  0
 24 26  2  0
  2  3  1  0
  3  4  2  0
  4  5  1  0
  5  6  2  0
  6  7  1  0
  7  8  1  0
  7  9  2  0
  9 10  1  0
 10 11  2  0
 11 12  1  0
 26 19  1  0
 12  3  1  0
 11  5  1  0
 17 18  1  0
 12 13  1  0
M  END
> <minimizedAffinity>
-7.89256

> <CNNscore>
0.9681687355

> <CNNaffinity>
5.9442963600

> <CNN_VS>
5.7550816536

> <CNNaffinity_variance>
0.4899417460

$$$$



 26 28  0  0  0  0  0  0  0  0999 V2000
   31.8447   -6.3967   16.7434 C   0  0  0  0  0  0  0  0  0  0  0  0
   31.7767   -5.5445   18.0053 C   0  0  0  0  0  0  0  0  0  0  0  0
   32.4510   -4.2177   17.8198 C   0  0  0  0  0  0  0  0  0  0  0  0
   31.8904   -3.0299   17.6938 N   0  0  0  0  0  0  0  0  0  0  0  0
   32.9269   -2.1404   17.5487 C   0  0  0  0  0  0  0  0  0  0  0  0
   32.8938   -0.7493   17.3816 C   0  0  0  0  0  0  0  0  0  0  0  0
   34.1119   -0.0728   17.2623 C   0  0  0  0  0  0  0  0  0  0  0  0
   34.1048    1.8072   17.0362 Br  0  0  0  0  0  0  0  0  0  0  0  0
   35.3327   -0.7517   17.3074 C   0  0  0  0  0  0  0  0  0  0  0  0
   35.3791   -2.1409   17.4736 C   0  0  0  0  0  0  0  0  0  0  0  0
   34.1519   -2.7961   17.5879 C   0  0  0  0  0  0  0  0  0  0  0  0
   33.8227   -4.1149   17.7579 N   0  0  0  0  0  0  0  0  0  0  0  0
   34.4594   -4.8628   17.8246 H   0  0  0  0  0  0  0  0  0  0  0  0
   30.3827   -5.3062   18.2868 O   0  0  0  0  0  0  0  0  0  0  0  0
   29.9490   -5.6921   19.5135 C   0  0  0  0  0  0  0  0  0  0  0  0
   29.8836   -6.8574   19.8773 O   0  0  0  0  0  0  0  0  0  0  0  0
   29.6362   -4.5701   20.2251 N   0  0  0  0  0  0  0  0  0  0  0  0
   29.7676   -3.7154   19.7545 H   0  0  0  0  0  0  0  0  0  0  0  0
   29.1515   -4.4736   21.5400 C   0  0  0  0  0  0  0  0  0  0  0  0
   27.9899   -3.7180   21.7378 C   0  0  0  0  0  0  0  0  0  0  0  0
   27.4435   -3.5723   23.0163 C   0  0  0  0  0  0  0  0  0  0  0  0
   28.0537   -4.1827   24.1131 C   0  0  0  0  0  0  0  0  0  0  0  0
   27.3273   -3.9627   25.6643 Cl  0  0  0  0  0  0  0  0  0  0  0  0
   29.2132   -4.9404   23.9240 C   0  0  0  0  0  0  0  0  0  0  0  0
   30.0239   -5.7267   25.2336 Cl  0  0  0  0  0  0  0  0  0  0  0  0
   29.7583   -5.0843   22.6404 C   0  0  0  0  0  0  0  0  0  0  0  0
  2  1  1  0
  2 14  1  0
 14 15  1  0
 15 16  2  0
 15 17  1  0
 17 19  1  0
 19 20  2  0
 20 21  1  0
 21 22  2  0
 22 23  1  0
 22 24  1  0
 24 25  1  0
 24 26  2  0
  2  3  1  0
  3  4  2  0
  4  5  1  0
  5  6  2  0
  6  7  1  0
  7  8  1  0
  7  9  2  0
  9 10  1  0
 10 11  2  0
 11 12  1  0
 26 19  1  0
 12  3  1  0
 11  5  1  0
 17 18  1  0
 12 13  1  0
M  END
> <minimizedAffinity>
-6.20606

> <CNNscore>
0.8427926302

> <CNNaffinity>
6.1112017632

> <CNN_VS>
5.1504759789

> <CNNaffinity_variance>
0.0372565351

$$$$



 26 28  0  0  0  0  0  0  0  0999 V2000
   29.4975   -4.1263   17.9861 C   0  0  0  0  0  0  0  0  0  0  0  0
   30.9093   -4.6973   17.9256 C   0  0  0  0  0  0  0  0  0  0  0  0
   31.9393   -3.6218   17.7470 C   0  0  0  0  0  0  0  0  0  0  0  0
   33.2450   -3.7587   17.6147 N   0  0  0  0  0  0  0  0  0  0  0  0
   33.7431   -2.4855   17.4817 C   0  0  0  0  0  0  0  0  0  0  0  0
   35.0664   -2.0572   17.3102 C   0  0  0  0  0  0  0  0  0  0  0  0
   35.3024   -0.6838   17.1933 C   0  0  0  0  0  0  0  0  0  0  0  0
   37.0783   -0.0694   16.9595 Br  0  0  0  0  0  0  0  0  0  0  0  0
   34.2587    0.2443   17.2437 C   0  0  0  0  0  0  0  0  0  0  0  0
   32.9328   -0.1708   17.4150 C   0  0  0  0  0  0  0  0  0  0  0  0
   32.7204   -1.5454   17.5320 C   0  0  0  0  0  0  0  0  0  0  0  0
   31.5849   -2.2919   17.7040 N   0  0  0  0  0  0  0  0  0  0  0  0
   30.6698   -1.9375   17.7835 H   0  0  0  0  0  0  0  0  0  0  0  0
   31.1594   -5.3563   19.1836 O   0  0  0  0  0  0  0  0  0  0  0  0
   30.0630   -5.6693   19.9196 C   0  0  0  0  0  0  0  0  0  0  0  0
   29.3901   -6.6749   19.7454 O   0  0  0  0  0  0  0  0  0  0  0  0
   29.8879   -4.6920   20.8563 N   0  0  0  0  0  0  0  0  0  0  0  0
   30.5483   -3.9621   20.8406 H   0  0  0  0  0  0  0  0  0  0  0  0
   28.8900   -4.5900   21.8398 C   0  0  0  0  0  0  0  0  0  0  0  0
   27.9862   -3.5274   21.7236 C   0  0  0  0  0  0  0  0  0  0  0  0
   26.9642   -3.3554   22.6618 C   0  0  0  0  0  0  0  0  0  0  0  0
   26.8341   -4.2465   23.7280 C   0  0  0  0  0  0  0  0  0  0  0  0
   25.5502   -3.9766   24.8509 Cl  0  0  0  0  0  0  0  0  0  0  0  0
   27.7316   -5.3113   23.8504 C   0  0  0  0  0  0  0  0  0  0  0  0
   27.6327   -6.4557   25.1431 Cl  0  0  0  0  0  0  0  0  0  0  0  0
   28.7552   -5.4808   22.9077 C   0  0  0  0  0  0  0  0  0  0  0  0
  2  1  1  0
  2 14  1  0
 14 15  1  0
 15 16  2  0
 15 17  1  0
 17 19  1  0
 19 20  2  0
 20 21  1  0
 21 22  2  0
 22 23  1  0
 22 24  1  0
 24 25  1  0
 24 26  2  0
  2  3  1  0
  3  4  2  0
  4  5  1  0
  5  6  2  0
  6  7  1  0
  7  8  1  0
  7  9  2  0
  9 10  1  0
 10 11  2  0
 11 12  1  0
 26 19  1  0
 12  3  1  0
 11  5  1  0
 17 18  1  0
 12 13  1  0
M  END
> <minimizedAffinity>
-7.35506

> <CNNscore>
0.8401126266

> <CNNaffinity>
6.1652278900

> <CNN_VS>
5.1794857979

> <CNNaffinity_variance>
0.3291116059

$$$$



 26 28  0  0  0  0  0  0  0  0999 V2000
   30.0640   -4.7634   17.9697 C   0  0  0  0  0  0  0  0  0  0  0  0
   30.7217   -5.1238   19.2966 C   0  0  0  0  0  0  0  0  0  0  0  0
   29.9015   -4.6702   20.4676 C   0  0  0  0  0  0  0  0  0  0  0  0
   28.6168   -4.3704   20.4947 N   0  0  0  0  0  0  0  0  0  0  0  0
   28.3434   -4.0123   21.7923 C   0  0  0  0  0  0  0  0  0  0  0  0
   27.1334   -3.6063   22.3710 C   0  0  0  0  0  0  0  0  0  0  0  0
   27.1279   -3.3003   23.7356 C   0  0  0  0  0  0  0  0  0  0  0  0
   25.5102   -2.7491   24.5510 Br  0  0  0  0  0  0  0  0  0  0  0  0
   28.2874   -3.3935   24.5104 C   0  0  0  0  0  0  0  0  0  0  0  0
   29.5021   -3.7975   23.9440 C   0  0  0  0  0  0  0  0  0  0  0  0
   29.4853   -4.0954   22.5805 C   0  0  0  0  0  0  0  0  0  0  0  0
   30.4621   -4.5125   21.7154 N   0  0  0  0  0  0  0  0  0  0  0  0
   31.4056   -4.6724   21.9467 H   0  0  0  0  0  0  0  0  0  0  0  0
   30.8240   -6.5612   19.3478 O   0  0  0  0  0  0  0  0  0  0  0  0
   29.6626   -7.2336   19.5495 C   0  0  0  0  0  0  0  0  0  0  0  0
   28.8941   -7.5497   18.6529 O   0  0  0  0  0  0  0  0  0  0  0  0
   29.5459   -7.4871   20.8856 N   0  0  0  0  0  0  0  0  0  0  0  0
   30.2819   -7.1556   21.4491 H   0  0  0  0  0  0  0  0  0  0  0  0
   28.5144   -8.1584   21.5629 C   0  0  0  0  0  0  0  0  0  0  0  0
   28.0566   -7.5863   22.7557 C   0  0  0  0  0  0  0  0  0  0  0  0
   27.0333   -8.1927   23.4901 C   0  0  0  0  0  0  0  0  0  0  0  0
   26.4548   -9.3797   23.0383 C   0  0  0  0  0  0  0  0  0  0  0  0
   25.1956  -10.0761   23.9930 Cl  0  0  0  0  0  0  0  0  0  0  0  0
   26.9051   -9.9568   21.8473 C   0  0  0  0  0  0  0  0  0  0  0  0
   26.2364  -11.4249   21.2243 Cl  0  0  0  0  0  0  0  0  0  0  0  0
   27.9315   -9.3459   21.1134 C   0  0  0  0  0  0  0  0  0  0  0  0
  2  1  1  0
  2 14  1  0
 14 15  1  0
 15 16  2  0
 15 17  1  0
 17 19  1  0
 19 20  2  0
 20 21  1  0
 21 22  2  0
 22 23  1  0
 22 24  1  0
 24 25  1  0
 24 26  2  0
  2  3  1  0
  3  4  2  0
  4  5  1  0
  5  6  2  0
  6  7  1  0
  7  8  1  0
  7  9  2  0
  9 10  1  0
 10 11  2  0
 11 12  1  0
 26 19  1  0
 12  3  1  0
 11  5  1  0
 17 18  1  0
 12 13  1  0
M  END
> <minimizedAffinity>
-5.24982

> <CNNscore>
0.7481796145

> <CNNaffinity>
5.8116474152

> <CNN_VS>
4.3481559753

> <CNNaffinity_variance>
0.0852794275

$$$$



 26 28  0  0  0  0  0  0  0  0999 V2000
   29.5073   -4.2395   17.6194 C   0  0  0  0  0  0  0  0  0  0  0  0
   30.3263   -4.9012   18.7214 C   0  0  0  0  0  0  0  0  0  0  0  0
   29.6886   -4.7329   20.0685 C   0  0  0  0  0  0  0  0  0  0  0  0
   30.0035   -5.3352   21.1995 N   0  0  0  0  0  0  0  0  0  0  0  0
   29.1308   -4.8450   22.1401 C   0  0  0  0  0  0  0  0  0  0  0  0
   29.0267   -5.1457   23.5049 C   0  0  0  0  0  0  0  0  0  0  0  0
   28.0398   -4.4908   24.2485 C   0  0  0  0  0  0  0  0  0  0  0  0
   27.8711   -4.8722   26.0955 Br  0  0  0  0  0  0  0  0  0  0  0  0
   27.1775   -3.5614   23.6603 C   0  0  0  0  0  0  0  0  0  0  0  0
   27.2712   -3.2526   22.2982 C   0  0  0  0  0  0  0  0  0  0  0  0
   28.2611   -3.9197   21.5748 C   0  0  0  0  0  0  0  0  0  0  0  0
   28.6337   -3.8683   20.2576 N   0  0  0  0  0  0  0  0  0  0  0  0
   28.2175   -3.3079   19.5633 H   0  0  0  0  0  0  0  0  0  0  0  0
   30.3855   -6.3108   18.4237 O   0  0  0  0  0  0  0  0  0  0  0  0
   31.6133   -6.8043   18.1226 C   0  0  0  0  0  0  0  0  0  0  0  0
   32.4142   -7.1952   18.9594 O   0  0  0  0  0  0  0  0  0  0  0  0
   31.7538   -6.7926   16.7650 N   0  0  0  0  0  0  0  0  0  0  0  0
   30.9843   -6.4447   16.2589 H   0  0  0  0  0  0  0  0  0  0  0  0
   32.8511   -7.2114   15.9943 C   0  0  0  0  0  0  0  0  0  0  0  0
   32.9004   -8.5638   15.6367 C   0  0  0  0  0  0  0  0  0  0  0  0
   33.9595   -9.0605   14.8711 C   0  0  0  0  0  0  0  0  0  0  0  0
   34.9824   -8.2080   14.4532 C   0  0  0  0  0  0  0  0  0  0  0  0
   36.2606   -8.8857   13.5103 Cl  0  0  0  0  0  0  0  0  0  0  0  0
   34.9399   -6.8556   14.8047 C   0  0  0  0  0  0  0  0  0  0  0  0
   36.1698   -5.7393   14.3230 Cl  0  0  0  0  0  0  0  0  0  0  0  0
   33.8763   -6.3611   15.5725 C   0  0  0  0  0  0  0  0  0  0  0  0
  2  1  1  0
  2 14  1  0
 14 15  1  0
 15 16  2  0
 15 17  1  0
 17 19  1  0
 19 20  2  0
 20 21  1  0
 21 22  2  0
 22 23  1  0
 22 24  1  0
 24 25  1  0
 24 26  2  0
  2  3  1  0
  3  4  2  0
  4  5  1  0
  5  6  2  0
  6  7  1  0
  7  8  1  0
  7  9  2  0
  9 10  1  0
 10 11  2  0
 11 12  1  0
 26 19  1  0
 12  3  1  0
 11  5  1  0
 17 18  1  0
 12 13  1  0
M  END
> <minimizedAffinity>
-4.80247

> <CNNscore>
0.7231004834

> <CNNaffinity>
5.9963021278

> <CNN_VS>
4.3359289169

> <CNNaffinity_variance>
0.3159260750

$$$$



 26 28  0  0  0  0  0  0  0  0999 V2000
   29.5845   -4.4040   17.6295 C   0  0  0  0  0  0  0  0  0  0  0  0
   30.5019   -4.8420   18.7652 C   0  0  0  0  0  0  0  0  0  0  0  0
   29.8365   -4.7098   20.1029 C   0  0  0  0  0  0  0  0  0  0  0  0
   30.1960   -5.2565   21.2487 N   0  0  0  0  0  0  0  0  0  0  0  0
   29.2701   -4.8346   22.1714 C   0  0  0  0  0  0  0  0  0  0  0  0
   29.1808   -5.1172   23.5411 C   0  0  0  0  0  0  0  0  0  0  0  0
   28.1275   -4.5462   24.2624 C   0  0  0  0  0  0  0  0  0  0  0  0
   27.9766   -4.9058   26.1154 Br  0  0  0  0  0  0  0  0  0  0  0  0
   27.1858   -3.7163   23.6478 C   0  0  0  0  0  0  0  0  0  0  0  0
   27.2639   -3.4267   22.2804 C   0  0  0  0  0  0  0  0  0  0  0  0
   28.3212   -4.0090   21.5796 C   0  0  0  0  0  0  0  0  0  0  0  0
   28.7012   -3.9477   20.2649 N   0  0  0  0  0  0  0  0  0  0  0  0
   28.2403   -3.4438   19.5557 H   0  0  0  0  0  0  0  0  0  0  0  0
   30.8130   -6.2338   18.5522 O   0  0  0  0  0  0  0  0  0  0  0  0
   29.7849   -7.1048   18.7136 C   0  0  0  0  0  0  0  0  0  0  0  0
   28.8550   -7.2139   17.9276 O   0  0  0  0  0  0  0  0  0  0  0  0
   30.0022   -7.8092   19.8624 N   0  0  0  0  0  0  0  0  0  0  0  0
   30.8219   -7.5785   20.3563 H   0  0  0  0  0  0  0  0  0  0  0  0
   29.2108   -8.8198   20.4331 C   0  0  0  0  0  0  0  0  0  0  0  0
   29.4911  -10.1385   20.0566 C   0  0  0  0  0  0  0  0  0  0  0  0
   28.7490  -11.2019   20.5790 C   0  0  0  0  0  0  0  0  0  0  0  0
   27.7171  -10.9576   21.4863 C   0  0  0  0  0  0  0  0  0  0  0  0
   26.8400  -12.3157   22.0931 Cl  0  0  0  0  0  0  0  0  0  0  0  0
   27.4317   -9.6436   21.8687 C   0  0  0  0  0  0  0  0  0  0  0  0
   26.1697   -9.2632   22.9882 Cl  0  0  0  0  0  0  0  0  0  0  0  0
   28.1779   -8.5797   21.3428 C   0  0  0  0  0  0  0  0  0  0  0  0
  2  1  1  0
  2 14  1  0
 14 15  1  0
 15 16  2  0
 15 17  1  0
 17 19  1  0
 19 20  2  0
 20 21  1  0
 21 22  2  0
 22 23  1  0
 22 24  1  0
 24 25  1  0
 24 26  2  0
  2  3  1  0
  3  4  2  0
  4  5  1  0
  5  6  2  0
  6  7  1  0
  7  8  1  0
  7  9  2  0
  9 10  1  0
 10 11  2  0
 11 12  1  0
 26 19  1  0
 12  3  1  0
 11  5  1  0
 17 18  1  0
 12 13  1  0
M  END
> <minimizedAffinity>
-5.17542

> <CNNscore>
0.6815999150

> <CNNaffinity>
5.9852080345

> <CNN_VS>
4.0795173645

> <CNNaffinity_variance>
0.7129314542

$$$$



 26 28  0  0  0  0  0  0  0  0999 V2000
   31.7873   -5.6386   18.5175 C   0  0  0  0  0  0  0  0  0  0  0  0
   30.3143   -5.2497   18.4727 C   0  0  0  0  0  0  0  0  0  0  0  0
   29.7504   -5.0396   19.8465 C   0  0  0  0  0  0  0  0  0  0  0  0
   30.0647   -5.6718   20.9613 N   0  0  0  0  0  0  0  0  0  0  0  0
   29.2749   -5.1196   21.9401 C   0  0  0  0  0  0  0  0  0  0  0  0
   29.2058   -5.4195   23.3073 C   0  0  0  0  0  0  0  0  0  0  0  0
   28.3069   -4.6929   24.0946 C   0  0  0  0  0  0  0  0  0  0  0  0
   28.1878   -5.0709   25.9462 Br  0  0  0  0  0  0  0  0  0  0  0  0
   27.4967   -3.6945   23.5467 C   0  0  0  0  0  0  0  0  0  0  0  0
   27.5561   -3.3858   22.1826 C   0  0  0  0  0  0  0  0  0  0  0  0
   28.4580   -4.1249   21.4153 C   0  0  0  0  0  0  0  0  0  0  0  0
   28.7766   -4.0952   20.0834 N   0  0  0  0  0  0  0  0  0  0  0  0
   28.3769   -3.4993   19.4093 H   0  0  0  0  0  0  0  0  0  0  0  0
   30.2216   -4.0042   17.7522 O   0  0  0  0  0  0  0  0  0  0  0  0
   31.3743   -3.5497   17.1986 C   0  0  0  0  0  0  0  0  0  0  0  0
   31.9284   -4.0805   16.2470 O   0  0  0  0  0  0  0  0  0  0  0  0
   31.7560   -2.4274   17.8752 N   0  0  0  0  0  0  0  0  0  0  0  0
   31.1653   -2.1517   18.6129 H   0  0  0  0  0  0  0  0  0  0  0  0
   32.8803   -1.6136   17.6581 C   0  0  0  0  0  0  0  0  0  0  0  0
   34.1348   -2.2326   17.7071 C   0  0  0  0  0  0  0  0  0  0  0  0
   35.3031   -1.4927   17.5022 C   0  0  0  0  0  0  0  0  0  0  0  0
   35.2293   -0.1230   17.2446 C   0  0  0  0  0  0  0  0  0  0  0  0
   36.7100    0.7314   17.0009 Cl  0  0  0  0  0  0  0  0  0  0  0  0
   33.9802    0.5026   17.1924 C   0  0  0  0  0  0  0  0  0  0  0  0
   33.8095    2.1945   16.8775 Cl  0  0  0  0  0  0  0  0  0  0  0  0
   32.8107   -0.2425   17.3983 C   0  0  0  0  0  0  0  0  0  0  0  0
  2  1  1  0
  2 14  1  0
 14 15  1  0
 15 16  2  0
 15 17  1  0
 17 19  1  0
 19 20  2  0
 20 21  1  0
 21 22  2  0
 22 23  1  0
 22 24  1  0
 24 25  1  0
 24 26  2  0
  2  3  1  0
  3  4  2  0
  4  5  1  0
  5  6  2  0
  6  7  1  0
  7  8  1  0
  7  9  2  0
  9 10  1  0
 10 11  2  0
 11 12  1  0
 26 19  1  0
 12  3  1  0
 11  5  1  0
 17 18  1  0
 12 13  1  0
M  END
> <minimizedAffinity>
-7.04240

> <CNNscore>
0.6536205411

> <CNNaffinity>
5.9529080391

> <CNN_VS>
3.8909430504

> <CNNaffinity_variance>
0.0260187853

$$$$



 26 28  0  0  0  0  0  0  0  0999 V2000
   31.3177   -6.7832   18.8120 C   0  0  0  0  0  0  0  0  0  0  0  0
   30.6544   -5.4109   18.8185 C   0  0  0  0  0  0  0  0  0  0  0  0
   29.9114   -5.1560   20.0962 C   0  0  0  0  0  0  0  0  0  0  0  0
   30.0402   -5.7803   21.2515 N   0  0  0  0  0  0  0  0  0  0  0  0
   29.1429   -5.1819   22.1022 C   0  0  0  0  0  0  0  0  0  0  0  0
   28.8701   -5.4554   23.4494 C   0  0  0  0  0  0  0  0  0  0  0  0
   27.8989   -4.6819   24.0930 C   0  0  0  0  0  0  0  0  0  0  0  0
   27.5052   -5.0232   25.9135 Br  0  0  0  0  0  0  0  0  0  0  0  0
   27.2143   -3.6633   23.4244 C   0  0  0  0  0  0  0  0  0  0  0  0
   27.4775   -3.3806   22.0789 C   0  0  0  0  0  0  0  0  0  0  0  0
   28.4483   -4.1663   21.4556 C   0  0  0  0  0  0  0  0  0  0  0  0
   28.9523   -4.1716   20.1818 N   0  0  0  0  0  0  0  0  0  0  0  0
   28.6756   -3.5728   19.4510 H   0  0  0  0  0  0  0  0  0  0  0  0
   31.7027   -4.4276   18.7029 O   0  0  0  0  0  0  0  0  0  0  0  0
   31.6213   -3.5938   17.6353 C   0  0  0  0  0  0  0  0  0  0  0  0
   30.8259   -3.7372   16.7181 O   0  0  0  0  0  0  0  0  0  0  0  0
   32.5478   -2.6048   17.7980 N   0  0  0  0  0  0  0  0  0  0  0  0
   33.0923   -2.6600   18.6163 H   0  0  0  0  0  0  0  0  0  0  0  0
   32.8272   -1.5185   16.9522 C   0  0  0  0  0  0  0  0  0  0  0  0
   32.7038   -0.2360   17.4993 C   0  0  0  0  0  0  0  0  0  0  0  0
   32.9635    0.8977   16.7236 C   0  0  0  0  0  0  0  0  0  0  0  0
   33.3511    0.7608   15.3899 C   0  0  0  0  0  0  0  0  0  0  0  0
   33.6564    2.2015   14.4881 Cl  0  0  0  0  0  0  0  0  0  0  0  0
   33.4783   -0.5166   14.8363 C   0  0  0  0  0  0  0  0  0  0  0  0
   33.9549   -0.7652   13.1926 Cl  0  0  0  0  0  0  0  0  0  0  0  0
   33.2171   -1.6512   15.6171 C   0  0  0  0  0  0  0  0  0  0  0  0
  2  1  1  0
  2 14  1  0
 14 15  1  0
 15 16  2  0
 15 17  1  0
 17 19  1  0
 19 20  2  0
 20 21  1  0
 21 22  2  0
 22 23  1  0
 22 24  1  0
 24 25  1  0
 24 26  2  0
  2  3  1  0
  3  4  2  0
  4  5  1  0
  5  6  2  0
  6  7  1  0
  7  8  1  0
  7  9  2  0
  9 10  1  0
 10 11  2  0
 11 12  1  0
 26 19  1  0
 12  3  1  0
 11  5  1  0
 17 18  1  0
 12 13  1  0
M  END
> <minimizedAffinity>
-6.19690

> <CNNscore>
0.6391896605

> <CNNaffinity>
5.9624619484

> <CNN_VS>
3.8111441135

> <CNNaffinity_variance>
0.1491282135

$$$$



 26 28  0  0  0  0  0  0  0  0999 V2000
   32.2158    2.1254   15.9302 C   0  0  0  0  0  0  0  0  0  0  0  0
   33.3529    1.3780   16.6169 C   0  0  0  0  0  0  0  0  0  0  0  0
   34.1579    2.2800   17.5045 C   0  0  0  0  0  0  0  0  0  0  0  0
   33.8733    2.6843   18.7279 N   0  0  0  0  0  0  0  0  0  0  0  0
   34.9174    3.4920   19.1075 C   0  0  0  0  0  0  0  0  0  0  0  0
   35.1232    4.1797   20.3112 C   0  0  0  0  0  0  0  0  0  0  0  0
   36.2908    4.9378   20.4433 C   0  0  0  0  0  0  0  0  0  0  0  0
   36.6019    5.8794   22.0564 Br  0  0  0  0  0  0  0  0  0  0  0  0
   37.2328    5.0151   19.4136 C   0  0  0  0  0  0  0  0  0  0  0  0
   37.0387    4.3331   18.2066 C   0  0  0  0  0  0  0  0  0  0  0  0
   35.8656    3.5849   18.0954 C   0  0  0  0  0  0  0  0  0  0  0  0
   35.3588    2.8087   17.0868 N   0  0  0  0  0  0  0  0  0  0  0  0
   35.7817    2.6549   16.2112 H   0  0  0  0  0  0  0  0  0  0  0  0
   32.7577    0.3524   17.4374 O   0  0  0  0  0  0  0  0  0  0  0  0
   33.1283   -0.9228   17.1578 C   0  0  0  0  0  0  0  0  0  0  0  0
   34.1865   -1.2232   16.6245 O   0  0  0  0  0  0  0  0  0  0  0  0
   32.1376   -1.7567   17.5894 N   0  0  0  0  0  0  0  0  0  0  0  0
   31.3611   -1.3176   18.0060 H   0  0  0  0  0  0  0  0  0  0  0  0
   32.0793   -3.1584   17.5178 C   0  0  0  0  0  0  0  0  0  0  0  0
   30.8646   -3.7266   17.1167 C   0  0  0  0  0  0  0  0  0  0  0  0
   30.7242   -5.1142   17.0205 C   0  0  0  0  0  0  0  0  0  0  0  0
   31.7996   -5.9503   17.3242 C   0  0  0  0  0  0  0  0  0  0  0  0
   31.5589   -7.6546   17.1848 Cl  0  0  0  0  0  0  0  0  0  0  0  0
   33.0167   -5.3908   17.7240 C   0  0  0  0  0  0  0  0  0  0  0  0
   34.3930   -6.3621   18.1151 Cl  0  0  0  0  0  0  0  0  0  0  0  0
   33.1539   -3.9989   17.8193 C   0  0  0  0  0  0  0  0  0  0  0  0
  2  1  1  0
  2 14  1  0
 14 15  1  0
 15 16  2  0
 15 17  1  0
 17 19  1  0
 19 20  2  0
 20 21  1  0
 21 22  2  0
 22 23  1  0
 22 24  1  0
 24 25  1  0
 24 26  2  0
  2  3  1  0
  3  4  2  0
  4  5  1  0
  5  6  2  0
  6  7  1  0
  7  8  1  0
  7  9  2  0
  9 10  1  0
 10 11  2  0
 11 12  1  0
 26 19  1  0
 12  3  1  0
 11  5  1  0
 17 18  1  0
 12 13  1  0
M  END
> <minimizedAffinity>
-4.90682

> <CNNscore>
0.6149659157

> <CNNaffinity>
5.5409007072

> <CNN_VS>
3.4074649811

> <CNNaffinity_variance>
0.3006834984

$$$$
