


 32 35  0  0  0  0  0  0  0  0999 V2000
   17.5296   -2.2852    9.5339 C   0  0  0  0  0  0  0  0  0  0  0  0
   16.8030   -1.2042    9.1177 O   0  0  0  0  0  0  0  0  0  0  0  0
   15.5883   -1.2535    9.7228 C   0  0  0  0  0  0  0  0  0  0  0  0
   14.6526   -0.3230    9.5153 N   0  0  0  0  0  0  0  0  0  0  0  0
   13.5433   -0.5892   10.2076 C   0  0  0  0  0  0  0  0  0  0  0  0
   12.5384    0.2923   10.0844 F   0  0  0  0  0  0  0  0  0  0  0  0
   13.3178   -1.6318   11.0278 N   0  0  0  0  0  0  0  0  0  0  0  0
   14.2842   -2.5623   11.2050 C   0  0  0  0  0  0  0  0  0  0  0  0
   15.5036   -2.3725   10.5345 C   0  0  0  0  0  0  0  0  0  0  0  0
   16.7666   -3.0365   10.4186 C   0  0  0  0  0  0  0  0  0  0  0  0
   21.4913   -2.5482    7.9012 C   0  0  0  0  0  0  0  0  0  0  0  0
   20.7396   -1.3829    7.7481 C   0  0  0  0  0  0  0  0  0  0  0  0
   19.4458   -1.2894    8.2736 C   0  0  0  0  0  0  0  0  0  0  0  0
   18.8779   -2.3617    8.9704 C   0  0  0  0  0  0  0  0  0  0  0  0
   19.6401   -3.5315    9.1132 C   0  0  0  0  0  0  0  0  0  0  0  0
   20.9352   -3.6259    8.5859 C   0  0  0  0  0  0  0  0  0  0  0  0
   22.8618   -1.8051    6.1080 C   0  0  0  0  0  0  0  0  0  0  0  0
   22.7368   -2.5049    7.3396 O   0  0  0  0  0  0  0  0  0  0  0  0
   17.2153   -4.2615   11.0485 C   0  0  0  0  0  0  0  0  0  0  0  0
   16.5860   -5.4757   10.7641 C   0  0  0  0  0  0  0  0  0  0  0  0
   17.0245   -6.6489   11.3827 C   0  0  0  0  0  0  0  0  0  0  0  0
   18.0859   -6.6245   12.2913 C   0  0  0  0  0  0  0  0  0  0  0  0
   18.7125   -5.4110   12.5764 C   0  0  0  0  0  0  0  0  0  0  0  0
   18.2805   -4.2336   11.9556 C   0  0  0  0  0  0  0  0  0  0  0  0
   18.4090   -7.8414   12.8242 O   0  0  0  0  0  0  0  0  0  0  0  0
   19.7916   -8.1658   12.8968 C   0  0  0  0  0  0  0  0  0  0  0  0
   14.0317   -3.6669   12.0134 N   0  0  0  0  0  0  0  0  0  0  0  0
   13.8884   -4.5615   11.6281 H   0  0  0  0  0  0  0  0  0  0  0  0
   13.9879   -3.4452   13.4582 C   0  0  0  0  0  0  0  0  0  0  0  0
   15.3712   -3.6188   14.0975 C   0  0  0  0  0  0  0  0  0  0  0  0
   15.4040   -2.9973   15.3861 O   0  0  0  0  0  0  0  0  0  0  0  0
   15.2205   -2.0494   15.2927 H   0  0  0  0  0  0  0  0  0  0  0  0
 17 18  1  0
 18 11  1  0
 11 12  2  0
 12 13  1  0
 13 14  2  0
 14  1  1  0
  1  2  1  0
  2  3  1  0
  3  4  2  0
  4  5  1  0
  5  6  1  0
  5  7  2  0
  7  8  1  0
  8 27  1  0
 27 29  1  0
 29 30  1  0
 30 31  1  0
  8  9  2  0
  9 10  1  0
 10 19  1  0
 19 20  2  0
 20 21  1  0
 21 22  2  0
 22 25  1  0
 25 26  1  0
 22 23  1  0
 23 24  2  0
 14 15  1  0
 15 16  2  0
 16 11  1  0
 10  1  2  0
 24 19  1  0
  9  3  1  0
 27 28  1  0
 31 32  1  0
M  END
> <minimizedAffinity>
-8.03427

> <CNNscore>
0.8853408694

> <CNNaffinity>
7.0870361328

> <CNN_VS>
6.2744426727

> <CNNaffinity_variance>
0.0668510497

$$$$



 32 35  0  0  0  0  0  0  0  0999 V2000
   17.4517   -2.5497   10.2305 C   0  0  0  0  0  0  0  0  0  0  0  0
   16.8325   -1.4630    9.6778 O   0  0  0  0  0  0  0  0  0  0  0  0
   15.5260   -1.4882   10.0471 C   0  0  0  0  0  0  0  0  0  0  0  0
   14.6602   -0.5467    9.6619 N   0  0  0  0  0  0  0  0  0  0  0  0
   13.4376   -0.7892   10.1382 C   0  0  0  0  0  0  0  0  0  0  0  0
   12.4874    0.1053    9.8234 F   0  0  0  0  0  0  0  0  0  0  0  0
   13.0469   -1.8193   10.9108 N   0  0  0  0  0  0  0  0  0  0  0  0
   13.9484   -2.7617   11.2720 C   0  0  0  0  0  0  0  0  0  0  0  0
   15.2740   -2.5969   10.8381 C   0  0  0  0  0  0  0  0  0  0  0  0
   16.5256   -3.2802   10.9642 C   0  0  0  0  0  0  0  0  0  0  0  0
   21.6349   -2.8254    9.3060 C   0  0  0  0  0  0  0  0  0  0  0  0
   21.0925   -3.5678   10.3553 C   0  0  0  0  0  0  0  0  0  0  0  0
   19.7306   -3.4814   10.6665 C   0  0  0  0  0  0  0  0  0  0  0  0
   18.8797   -2.6519    9.9279 C   0  0  0  0  0  0  0  0  0  0  0  0
   19.4367   -1.9045    8.8786 C   0  0  0  0  0  0  0  0  0  0  0  0
   20.8006   -1.9898    8.5676 C   0  0  0  0  0  0  0  0  0  0  0  0
   23.3610   -3.9041    8.0802 C   0  0  0  0  0  0  0  0  0  0  0  0
   22.9761   -3.0033    9.1111 O   0  0  0  0  0  0  0  0  0  0  0  0
   16.8297   -4.5045   11.6764 C   0  0  0  0  0  0  0  0  0  0  0  0
   17.1754   -5.6633   10.9773 C   0  0  0  0  0  0  0  0  0  0  0  0
   17.4606   -6.8390   11.6757 C   0  0  0  0  0  0  0  0  0  0  0  0
   17.3993   -6.8744   13.0713 C   0  0  0  0  0  0  0  0  0  0  0  0
   17.0518   -5.7171   13.7688 C   0  0  0  0  0  0  0  0  0  0  0  0
   16.7701   -4.5353   13.0742 C   0  0  0  0  0  0  0  0  0  0  0  0
   17.6986   -8.0881   13.6250 O   0  0  0  0  0  0  0  0  0  0  0  0
   18.8825   -8.7297   13.1683 C   0  0  0  0  0  0  0  0  0  0  0  0
   13.5324   -3.8536   12.0284 N   0  0  0  0  0  0  0  0  0  0  0  0
   14.0228   -4.7070   12.0085 H   0  0  0  0  0  0  0  0  0  0  0  0
   12.3377   -3.6820   12.8540 C   0  0  0  0  0  0  0  0  0  0  0  0
   12.6985   -3.4459   14.3258 C   0  0  0  0  0  0  0  0  0  0  0  0
   13.6153   -2.3533   14.4431 O   0  0  0  0  0  0  0  0  0  0  0  0
   14.4265   -2.5577   13.9521 H   0  0  0  0  0  0  0  0  0  0  0  0
 17 18  1  0
 18 11  1  0
 11 12  2  0
 12 13  1  0
 13 14  2  0
 14  1  1  0
  1  2  1  0
  2  3  1  0
  3  4  2  0
  4  5  1  0
  5  6  1  0
  5  7  2  0
  7  8  1  0
  8 27  1  0
 27 29  1  0
 29 30  1  0
 30 31  1  0
  8  9  2  0
  9 10  1  0
 10 19  1  0
 19 20  2  0
 20 21  1  0
 21 22  2  0
 22 25  1  0
 25 26  1  0
 22 23  1  0
 23 24  2  0
 14 15  1  0
 15 16  2  0
 16 11  1  0
 10  1  2  0
 24 19  1  0
  9  3  1  0
 27 28  1  0
 31 32  1  0
M  END
> <minimizedAffinity>
-7.12340

> <CNNscore>
0.7662752867

> <CNNaffinity>
6.9863739014

> <CNN_VS>
5.3534855843

> <CNNaffinity_variance>
0.1387152076

$$$$



 32 35  0  0  0  0  0  0  0  0999 V2000
   25.6120   -2.1983    8.4707 C   0  0  0  0  0  0  0  0  0  0  0  0
   24.9802   -1.4842    7.4906 O   0  0  0  0  0  0  0  0  0  0  0  0
   24.1629   -2.3301    6.8119 C   0  0  0  0  0  0  0  0  0  0  0  0
   23.4052   -1.9199    5.7911 N   0  0  0  0  0  0  0  0  0  0  0  0
   22.6980   -2.9283    5.2774 C   0  0  0  0  0  0  0  0  0  0  0  0
   21.8873   -2.6252    4.2513 F   0  0  0  0  0  0  0  0  0  0  0  0
   22.6908   -4.2132    5.6770 N   0  0  0  0  0  0  0  0  0  0  0  0
   23.4805   -4.5959    6.7070 C   0  0  0  0  0  0  0  0  0  0  0  0
   24.2581   -3.6091    7.3348 C   0  0  0  0  0  0  0  0  0  0  0  0
   25.1915   -3.5211    8.4166 C   0  0  0  0  0  0  0  0  0  0  0  0
   28.2565    0.1199   10.9329 C   0  0  0  0  0  0  0  0  0  0  0  0
   28.6826   -0.3591    9.6938 C   0  0  0  0  0  0  0  0  0  0  0  0
   27.8288   -1.1190    8.8860 C   0  0  0  0  0  0  0  0  0  0  0  0
   26.5247   -1.4112    9.3005 C   0  0  0  0  0  0  0  0  0  0  0  0
   26.1082   -0.9299   10.5513 C   0  0  0  0  0  0  0  0  0  0  0  0
   26.9634   -0.1701   11.3611 C   0  0  0  0  0  0  0  0  0  0  0  0
   29.2129    2.2484   11.3808 C   0  0  0  0  0  0  0  0  0  0  0  0
   29.1895    0.8465   11.6185 O   0  0  0  0  0  0  0  0  0  0  0  0
   25.6659   -4.5662    9.3004 C   0  0  0  0  0  0  0  0  0  0  0  0
   25.0260   -4.8085   10.5182 C   0  0  0  0  0  0  0  0  0  0  0  0
   25.4971   -5.8154   11.3642 C   0  0  0  0  0  0  0  0  0  0  0  0
   26.6089   -6.5845   11.0104 C   0  0  0  0  0  0  0  0  0  0  0  0
   27.2489   -6.3404    9.7949 C   0  0  0  0  0  0  0  0  0  0  0  0
   26.7779   -5.3363    8.9414 C   0  0  0  0  0  0  0  0  0  0  0  0
   26.9640   -7.5313   11.9306 O   0  0  0  0  0  0  0  0  0  0  0  0
   28.1912   -7.3304   12.6203 C   0  0  0  0  0  0  0  0  0  0  0  0
   23.5107   -5.9348    7.0865 N   0  0  0  0  0  0  0  0  0  0  0  0
   23.9486   -6.2209    7.9205 H   0  0  0  0  0  0  0  0  0  0  0  0
   22.8657   -6.8993    6.1964 C   0  0  0  0  0  0  0  0  0  0  0  0
   22.9571   -8.3265    6.7505 C   0  0  0  0  0  0  0  0  0  0  0  0
   22.6406   -8.3384    8.1461 O   0  0  0  0  0  0  0  0  0  0  0  0
   23.2701   -7.7770    8.6252 H   0  0  0  0  0  0  0  0  0  0  0  0
 17 18  1  0
 18 11  1  0
 11 12  2  0
 12 13  1  0
 13 14  2  0
 14  1  1  0
  1  2  1  0
  2  3  1  0
  3  4  2  0
  4  5  1  0
  5  6  1  0
  5  7  2  0
  7  8  1  0
  8 27  1  0
 27 29  1  0
 29 30  1  0
 30 31  1  0
  8  9  2  0
  9 10  1  0
 10 19  1  0
 19 20  2  0
 20 21  1  0
 21 22  2  0
 22 25  1  0
 25 26  1  0
 22 23  1  0
 23 24  2  0
 14 15  1  0
 15 16  2  0
 16 11  1  0
 10  1  2  0
 24 19  1  0
  9  3  1  0
 27 28  1  0
 31 32  1  0
M  END
> <minimizedAffinity>
-3.18526

> <CNNscore>
0.5802292228

> <CNNaffinity>
6.4153099060

> <CNN_VS>
3.7223503590

> <CNNaffinity_variance>
1.7845042944

$$$$



 32 35  0  0  0  0  0  0  0  0999 V2000
   18.7159   -3.0142   10.2451 C   0  0  0  0  0  0  0  0  0  0  0  0
   18.5460   -1.8672    9.5202 O   0  0  0  0  0  0  0  0  0  0  0  0
   17.2309   -1.5318    9.5625 C   0  0  0  0  0  0  0  0  0  0  0  0
   16.7537   -0.4475    8.9453 N   0  0  0  0  0  0  0  0  0  0  0  0
   15.4357   -0.3320    9.1195 C   0  0  0  0  0  0  0  0  0  0  0  0
   14.8512    0.7349    8.5519 F   0  0  0  0  0  0  0  0  0  0  0  0
   14.6239   -1.1529    9.8106 N   0  0  0  0  0  0  0  0  0  0  0  0
   15.1398   -2.2492   10.4131 C   0  0  0  0  0  0  0  0  0  0  0  0
   16.5242   -2.4610   10.3079 C   0  0  0  0  0  0  0  0  0  0  0  0
   17.4897   -3.4174   10.7580 C   0  0  0  0  0  0  0  0  0  0  0  0
   22.7649   -4.4359   10.3673 C   0  0  0  0  0  0  0  0  0  0  0  0
   22.0896   -4.1232   11.5474 C   0  0  0  0  0  0  0  0  0  0  0  0
   20.7708   -3.6554   11.5171 C   0  0  0  0  0  0  0  0  0  0  0  0
   20.0966   -3.4958   10.3015 C   0  0  0  0  0  0  0  0  0  0  0  0
   20.7871   -3.8071    9.1200 C   0  0  0  0  0  0  0  0  0  0  0  0
   22.1082   -4.2743    9.1499 C   0  0  0  0  0  0  0  0  0  0  0  0
   24.2727   -5.7805   11.6181 C   0  0  0  0  0  0  0  0  0  0  0  0
   24.0457   -4.8809   10.5404 O   0  0  0  0  0  0  0  0  0  0  0  0
   17.2919   -4.6034   11.5661 C   0  0  0  0  0  0  0  0  0  0  0  0
   17.4624   -4.5529   12.9516 C   0  0  0  0  0  0  0  0  0  0  0  0
   17.2745   -5.7051   13.7187 C   0  0  0  0  0  0  0  0  0  0  0  0
   16.9218   -6.9156   13.1162 C   0  0  0  0  0  0  0  0  0  0  0  0
   16.7539   -6.9657   11.7321 C   0  0  0  0  0  0  0  0  0  0  0  0
   16.9359   -5.8132   10.9595 C   0  0  0  0  0  0  0  0  0  0  0  0
   16.7734   -7.9625   13.9830 O   0  0  0  0  0  0  0  0  0  0  0  0
   15.5884   -7.9848   14.7686 C   0  0  0  0  0  0  0  0  0  0  0  0
   14.2915   -3.1250   11.0847 N   0  0  0  0  0  0  0  0  0  0  0  0
   14.6426   -3.9044   11.5730 H   0  0  0  0  0  0  0  0  0  0  0  0
   12.8580   -2.8405   11.0358 C   0  0  0  0  0  0  0  0  0  0  0  0
   12.3370   -2.3353   12.3870 C   0  0  0  0  0  0  0  0  0  0  0  0
   11.4862   -3.3160   12.9891 O   0  0  0  0  0  0  0  0  0  0  0  0
   10.7291   -3.4879   12.4076 H   0  0  0  0  0  0  0  0  0  0  0  0
 17 18  1  0
 18 11  1  0
 11 12  2  0
 12 13  1  0
 13 14  2  0
 14  1  1  0
  1  2  1  0
  2  3  1  0
  3  4  2  0
  4  5  1  0
  5  6  1  0
  5  7  2  0
  7  8  1  0
  8 27  1  0
 27 29  1  0
 29 30  1  0
 30 31  1  0
  8  9  2  0
  9 10  1  0
 10 19  1  0
 19 20  2  0
 20 21  1  0
 21 22  2  0
 22 25  1  0
 25 26  1  0
 22 23  1  0
 23 24  2  0
 14 15  1  0
 15 16  2  0
 16 11  1  0
 10  1  2  0
 24 19  1  0
  9  3  1  0
 27 28  1  0
 31 32  1  0
M  END
> <minimizedAffinity>
-7.17243

> <CNNscore>
0.5670949221

> <CNNaffinity>
6.5898108482

> <CNN_VS>
3.7370483875

> <CNNaffinity_variance>
0.0163196381

$$$$



 32 35  0  0  0  0  0  0  0  0999 V2000
   16.9568   -3.1352   10.8157 C   0  0  0  0  0  0  0  0  0  0  0  0
   16.4149   -2.1474   10.0409 O   0  0  0  0  0  0  0  0  0  0  0  0
   15.1378   -1.9401   10.4532 C   0  0  0  0  0  0  0  0  0  0  0  0
   14.3470   -1.0257    9.8848 N   0  0  0  0  0  0  0  0  0  0  0  0
   13.1383   -1.0124   10.4501 C   0  0  0  0  0  0  0  0  0  0  0  0
   12.2635   -0.1175    9.9645 F   0  0  0  0  0  0  0  0  0  0  0  0
   12.6966   -1.7821   11.4616 N   0  0  0  0  0  0  0  0  0  0  0  0
   13.5213   -2.7068   12.0055 C   0  0  0  0  0  0  0  0  0  0  0  0
   14.8271   -2.7966   11.4964 C   0  0  0  0  0  0  0  0  0  0  0  0
   16.0105   -3.5654   11.7371 C   0  0  0  0  0  0  0  0  0  0  0  0
   21.0301   -4.0728    9.8360 C   0  0  0  0  0  0  0  0  0  0  0  0
   20.3909   -4.7191   10.8945 C   0  0  0  0  0  0  0  0  0  0  0  0
   19.0644   -4.4172   11.2236 C   0  0  0  0  0  0  0  0  0  0  0  0
   18.3462   -3.4632   10.4942 C   0  0  0  0  0  0  0  0  0  0  0  0
   19.0005   -2.8144    9.4356 C   0  0  0  0  0  0  0  0  0  0  0  0
   20.3292   -3.1156    9.1066 C   0  0  0  0  0  0  0  0  0  0  0  0
   23.2365   -3.4543    9.2077 C   0  0  0  0  0  0  0  0  0  0  0  0
   22.3231   -4.4618    9.6237 O   0  0  0  0  0  0  0  0  0  0  0  0
   16.2359   -4.6136   12.7112 C   0  0  0  0  0  0  0  0  0  0  0  0
   16.7444   -4.3079   13.9758 C   0  0  0  0  0  0  0  0  0  0  0  0
   16.9627   -5.3287   14.9041 C   0  0  0  0  0  0  0  0  0  0  0  0
   16.6835   -6.6595   14.5822 C   0  0  0  0  0  0  0  0  0  0  0  0
   16.1777   -6.9644   13.3181 C   0  0  0  0  0  0  0  0  0  0  0  0
   15.9523   -5.9449   12.3863 C   0  0  0  0  0  0  0  0  0  0  0  0
   16.9466   -7.5555   15.5808 O   0  0  0  0  0  0  0  0  0  0  0  0
   16.9225   -7.0596   16.9133 C   0  0  0  0  0  0  0  0  0  0  0  0
   13.0473   -3.5371   13.0172 N   0  0  0  0  0  0  0  0  0  0  0  0
   13.3452   -3.4298   13.9494 H   0  0  0  0  0  0  0  0  0  0  0  0
   12.0889   -4.5751   12.6397 C   0  0  0  0  0  0  0  0  0  0  0  0
   12.3234   -5.8714   13.4251 C   0  0  0  0  0  0  0  0  0  0  0  0
   11.7059   -5.7897   14.7136 O   0  0  0  0  0  0  0  0  0  0  0  0
   12.0905   -5.0505   15.2101 H   0  0  0  0  0  0  0  0  0  0  0  0
 17 18  1  0
 18 11  1  0
 11 12  2  0
 12 13  1  0
 13 14  2  0
 14  1  1  0
  1  2  1  0
  2  3  1  0
  3  4  2  0
  4  5  1  0
  5  6  1  0
  5  7  2  0
  7  8  1  0
  8 27  1  0
 27 29  1  0
 29 30  1  0
 30 31  1  0
  8  9  2  0
  9 10  1  0
 10 19  1  0
 19 20  2  0
 20 21  1  0
 21 22  2  0
 22 25  1  0
 25 26  1  0
 22 23  1  0
 23 24  2  0
 14 15  1  0
 15 16  2  0
 16 11  1  0
 10  1  2  0
 24 19  1  0
  9  3  1  0
 27 28  1  0
 31 32  1  0
M  END
> <minimizedAffinity>
-7.78173

> <CNNscore>
0.4885695577

> <CNNaffinity>
6.8142409325

> <CNN_VS>
3.3292307854

> <CNNaffinity_variance>
0.1514338255

$$$$



 32 35  0  0  0  0  0  0  0  0999 V2000
   13.8773   -2.3426   11.7656 C   0  0  0  0  0  0  0  0  0  0  0  0
   14.1786   -1.6137   10.6486 O   0  0  0  0  0  0  0  0  0  0  0  0
   15.4224   -1.9687   10.2354 C   0  0  0  0  0  0  0  0  0  0  0  0
   15.9951   -1.4261    9.1574 N   0  0  0  0  0  0  0  0  0  0  0  0
   17.2171   -1.9231    8.9566 C   0  0  0  0  0  0  0  0  0  0  0  0
   17.8814   -1.4568    7.8873 F   0  0  0  0  0  0  0  0  0  0  0  0
   17.8579   -2.8492    9.6929 N   0  0  0  0  0  0  0  0  0  0  0  0
   17.2522   -3.3685   10.7859 C   0  0  0  0  0  0  0  0  0  0  0  0
   15.9524   -2.9273   11.0831 C   0  0  0  0  0  0  0  0  0  0  0  0
   14.9460   -3.1760   12.0703 C   0  0  0  0  0  0  0  0  0  0  0  0
    9.9788   -1.6019   13.4035 C   0  0  0  0  0  0  0  0  0  0  0  0
   10.7677   -0.5442   12.9504 C   0  0  0  0  0  0  0  0  0  0  0  0
   12.0414   -0.7757   12.4184 C   0  0  0  0  0  0  0  0  0  0  0  0
   12.5512   -2.0753   12.3235 C   0  0  0  0  0  0  0  0  0  0  0  0
   11.7521   -3.1314   12.7881 C   0  0  0  0  0  0  0  0  0  0  0  0
   10.4771   -2.8998   13.3221 C   0  0  0  0  0  0  0  0  0  0  0  0
    8.4773    0.1574   13.9477 C   0  0  0  0  0  0  0  0  0  0  0  0
    8.7585   -1.2357   13.8988 O   0  0  0  0  0  0  0  0  0  0  0  0
   14.9798   -4.0814   13.2006 C   0  0  0  0  0  0  0  0  0  0  0  0
   14.6836   -5.4361   13.0321 C   0  0  0  0  0  0  0  0  0  0  0  0
   14.7141   -6.2976   14.1313 C   0  0  0  0  0  0  0  0  0  0  0  0
   15.0329   -5.8201   15.4053 C   0  0  0  0  0  0  0  0  0  0  0  0
   15.3264   -4.4666   15.5732 C   0  0  0  0  0  0  0  0  0  0  0  0
   15.3024   -3.6002   14.4745 C   0  0  0  0  0  0  0  0  0  0  0  0
   15.0223   -6.7691   16.3895 O   0  0  0  0  0  0  0  0  0  0  0  0
   16.1746   -7.5950   16.4997 C   0  0  0  0  0  0  0  0  0  0  0  0
   17.9356   -4.2886   11.5757 N   0  0  0  0  0  0  0  0  0  0  0  0
   18.2927   -4.0400   12.4588 H   0  0  0  0  0  0  0  0  0  0  0  0
   18.1018   -5.6395   11.0410 C   0  0  0  0  0  0  0  0  0  0  0  0
   19.1425   -6.4368   11.8368 C   0  0  0  0  0  0  0  0  0  0  0  0
   20.4036   -6.4207   11.1605 O   0  0  0  0  0  0  0  0  0  0  0  0
   20.3055   -6.8241   10.2838 H   0  0  0  0  0  0  0  0  0  0  0  0
 17 18  1  0
 18 11  1  0
 11 12  2  0
 12 13  1  0
 13 14  2  0
 14  1  1  0
  1  2  1  0
  2  3  1  0
  3  4  2  0
  4  5  1  0
  5  6  1  0
  5  7  2  0
  7  8  1  0
  8 27  1  0
 27 29  1  0
 29 30  1  0
 30 31  1  0
  8  9  2  0
  9 10  1  0
 10 19  1  0
 19 20  2  0
 20 21  1  0
 21 22  2  0
 22 25  1  0
 25 26  1  0
 22 23  1  0
 23 24  2  0
 14 15  1  0
 15 16  2  0
 16 11  1  0
 10  1  2  0
 24 19  1  0
  9  3  1  0
 27 28  1  0
 31 32  1  0
M  END
> <minimizedAffinity>
-8.52118

> <CNNscore>
0.3455976546

> <CNNaffinity>
6.6391830444

> <CNN_VS>
2.2944860458

> <CNNaffinity_variance>
0.0006302270

$$$$



 32 35  0  0  0  0  0  0  0  0999 V2000
   14.7131   -2.9250   11.6750 C   0  0  0  0  0  0  0  0  0  0  0  0
   14.9420   -2.0879   10.6183 O   0  0  0  0  0  0  0  0  0  0  0  0
   16.2336   -2.2426   10.2289 C   0  0  0  0  0  0  0  0  0  0  0  0
   16.7557   -1.5556    9.2092 N   0  0  0  0  0  0  0  0  0  0  0  0
   18.0394   -1.8681    9.0218 C   0  0  0  0  0  0  0  0  0  0  0  0
   18.6625   -1.2447    8.0093 F   0  0  0  0  0  0  0  0  0  0  0  0
   18.7809   -2.7470    9.7206 N   0  0  0  0  0  0  0  0  0  0  0  0
   18.2224   -3.4165   10.7555 C   0  0  0  0  0  0  0  0  0  0  0  0
   16.8667   -3.1762   11.0326 C   0  0  0  0  0  0  0  0  0  0  0  0
   15.8773   -3.6252   11.9647 C   0  0  0  0  0  0  0  0  0  0  0  0
   10.7131   -2.7438   13.2233 C   0  0  0  0  0  0  0  0  0  0  0  0
   11.2973   -3.9730   12.9164 C   0  0  0  0  0  0  0  0  0  0  0  0
   12.5993   -4.0417   12.4075 C   0  0  0  0  0  0  0  0  0  0  0  0
   13.3481   -2.8780   12.2001 C   0  0  0  0  0  0  0  0  0  0  0  0
   12.7488   -1.6463   12.5061 C   0  0  0  0  0  0  0  0  0  0  0  0
   11.4445   -1.5772   13.0144 C   0  0  0  0  0  0  0  0  0  0  0  0
    8.6551   -1.6354   13.6497 C   0  0  0  0  0  0  0  0  0  0  0  0
    9.4386   -2.8206   13.7113 O   0  0  0  0  0  0  0  0  0  0  0  0
   16.0041   -4.5925   13.0357 C   0  0  0  0  0  0  0  0  0  0  0  0
   16.3632   -4.1822   14.3217 C   0  0  0  0  0  0  0  0  0  0  0  0
   16.4878   -5.1257   15.3443 C   0  0  0  0  0  0  0  0  0  0  0  0
   16.2628   -6.4825   15.0966 C   0  0  0  0  0  0  0  0  0  0  0  0
   15.9063   -6.8917   13.8113 C   0  0  0  0  0  0  0  0  0  0  0  0
   15.7751   -5.9500   12.7845 C   0  0  0  0  0  0  0  0  0  0  0  0
   16.4225   -7.2953   16.1843 O   0  0  0  0  0  0  0  0  0  0  0  0
   16.7339   -6.6637   17.4197 C   0  0  0  0  0  0  0  0  0  0  0  0
   19.0037   -4.2874   11.5096 N   0  0  0  0  0  0  0  0  0  0  0  0
   18.6133   -5.0799   11.9440 H   0  0  0  0  0  0  0  0  0  0  0  0
   20.4278   -3.9778   11.6305 C   0  0  0  0  0  0  0  0  0  0  0  0
   21.2988   -5.2042   11.3312 C   0  0  0  0  0  0  0  0  0  0  0  0
   21.6500   -5.2371    9.9443 O   0  0  0  0  0  0  0  0  0  0  0  0
   20.8436   -5.2890    9.4077 H   0  0  0  0  0  0  0  0  0  0  0  0
 17 18  1  0
 18 11  1  0
 11 12  2  0
 12 13  1  0
 13 14  2  0
 14  1  1  0
  1  2  1  0
  2  3  1  0
  3  4  2  0
  4  5  1  0
  5  6  1  0
  5  7  2  0
  7  8  1  0
  8 27  1  0
 27 29  1  0
 29 30  1  0
 30 31  1  0
  8  9  2  0
  9 10  1  0
 10 19  1  0
 19 20  2  0
 20 21  1  0
 21 22  2  0
 22 25  1  0
 25 26  1  0
 22 23  1  0
 23 24  2  0
 14 15  1  0
 15 16  2  0
 16 11  1  0
 10  1  2  0
 24 19  1  0
  9  3  1  0
 27 28  1  0
 31 32  1  0
M  END
> <minimizedAffinity>
-8.14461

> <CNNscore>
0.3407900929

> <CNNaffinity>
6.6201081276

> <CNN_VS>
2.2560672760

> <CNNaffinity_variance>
0.0410622172

$$$$



 32 35  0  0  0  0  0  0  0  0999 V2000
   15.6435   -3.9303   12.1658 C   0  0  0  0  0  0  0  0  0  0  0  0
   14.8527   -2.9232   11.6859 O   0  0  0  0  0  0  0  0  0  0  0  0
   15.5121   -2.3187   10.6643 C   0  0  0  0  0  0  0  0  0  0  0  0
   14.9878   -1.2931    9.9880 N   0  0  0  0  0  0  0  0  0  0  0  0
   15.8222   -0.8607    9.0407 C   0  0  0  0  0  0  0  0  0  0  0  0
   15.3890    0.1623    8.2871 F   0  0  0  0  0  0  0  0  0  0  0  0
   17.0435   -1.3397    8.7414 N   0  0  0  0  0  0  0  0  0  0  0  0
   17.5486   -2.3721    9.4557 C   0  0  0  0  0  0  0  0  0  0  0  0
   16.7458   -2.9179   10.4706 C   0  0  0  0  0  0  0  0  0  0  0  0
   16.8266   -3.9692   11.4390 C   0  0  0  0  0  0  0  0  0  0  0  0
   13.8886   -6.1665   15.3829 C   0  0  0  0  0  0  0  0  0  0  0  0
   14.8913   -5.2304   15.6373 C   0  0  0  0  0  0  0  0  0  0  0  0
   15.4719   -4.4995   14.5944 C   0  0  0  0  0  0  0  0  0  0  0  0
   15.0557   -4.6870   13.2718 C   0  0  0  0  0  0  0  0  0  0  0  0
   14.0509   -5.6356   13.0261 C   0  0  0  0  0  0  0  0  0  0  0  0
   13.4702   -6.3686   14.0700 C   0  0  0  0  0  0  0  0  0  0  0  0
   14.3605   -7.1691   17.4848 C   0  0  0  0  0  0  0  0  0  0  0  0
   13.4098   -6.8091   16.4903 O   0  0  0  0  0  0  0  0  0  0  0  0
   17.9053   -4.9047   11.6831 C   0  0  0  0  0  0  0  0  0  0  0  0
   19.2207   -4.4517   11.8091 C   0  0  0  0  0  0  0  0  0  0  0  0
   20.2527   -5.3648   12.0385 C   0  0  0  0  0  0  0  0  0  0  0  0
   19.9875   -6.7332   12.1388 C   0  0  0  0  0  0  0  0  0  0  0  0
   18.6738   -7.1850   12.0107 C   0  0  0  0  0  0  0  0  0  0  0  0
   17.6356   -6.2740   11.7859 C   0  0  0  0  0  0  0  0  0  0  0  0
   21.0884   -7.5130   12.3606 O   0  0  0  0  0  0  0  0  0  0  0  0
   21.8787   -7.8484   11.2271 C   0  0  0  0  0  0  0  0  0  0  0  0
   18.8323   -2.8335    9.1790 N   0  0  0  0  0  0  0  0  0  0  0  0
   19.1035   -3.7546    9.3968 H   0  0  0  0  0  0  0  0  0  0  0  0
   19.7621   -1.8952    8.5517 C   0  0  0  0  0  0  0  0  0  0  0  0
   20.9476   -2.6230    7.9059 C   0  0  0  0  0  0  0  0  0  0  0  0
   20.8870   -4.0235    8.1941 O   0  0  0  0  0  0  0  0  0  0  0  0
   20.9240   -4.1580    9.1540 H   0  0  0  0  0  0  0  0  0  0  0  0
 17 18  1  0
 18 11  1  0
 11 12  2  0
 12 13  1  0
 13 14  2  0
 14  1  1  0
  1  2  1  0
  2  3  1  0
  3  4  2  0
  4  5  1  0
  5  6  1  0
  5  7  2  0
  7  8  1  0
  8 27  1  0
 27 29  1  0
 29 30  1  0
 30 31  1  0
  8  9  2  0
  9 10  1  0
 10 19  1  0
 19 20  2  0
 20 21  1  0
 21 22  2  0
 22 25  1  0
 25 26  1  0
 22 23  1  0
 23 24  2  0
 14 15  1  0
 15 16  2  0
 16 11  1  0
 10  1  2  0
 24 19  1  0
  9  3  1  0
 27 28  1  0
 31 32  1  0
M  END
> <minimizedAffinity>
-7.36573

> <CNNscore>
0.3064741194

> <CNNaffinity>
6.5191020966

> <CNN_VS>
1.9979361296

> <CNNaffinity_variance>
0.0366746448

$$$$



 32 35  0  0  0  0  0  0  0  0999 V2000
   26.4961    2.4721    7.2935 C   0  0  0  0  0  0  0  0  0  0  0  0
   26.7007    2.3295    8.6379 O   0  0  0  0  0  0  0  0  0  0  0  0
   26.7526    1.0020    8.9189 C   0  0  0  0  0  0  0  0  0  0  0  0
   26.9474    0.5450   10.1589 N   0  0  0  0  0  0  0  0  0  0  0  0
   26.9494   -0.7891   10.1884 C   0  0  0  0  0  0  0  0  0  0  0  0
   27.1524   -1.3580   11.3872 F   0  0  0  0  0  0  0  0  0  0  0  0
   26.7861   -1.6333    9.1534 N   0  0  0  0  0  0  0  0  0  0  0  0
   26.5785   -1.1352    7.9125 C   0  0  0  0  0  0  0  0  0  0  0  0
   26.5732    0.2613    7.7624 C   0  0  0  0  0  0  0  0  0  0  0  0
   26.4160    1.2155    6.7069 C   0  0  0  0  0  0  0  0  0  0  0  0
   26.3436    6.5431    5.9394 C   0  0  0  0  0  0  0  0  0  0  0  0
   25.2375    5.9630    6.5609 C   0  0  0  0  0  0  0  0  0  0  0  0
   25.2766    4.6353    7.0022 C   0  0  0  0  0  0  0  0  0  0  0  0
   26.4294    3.8601    6.8350 C   0  0  0  0  0  0  0  0  0  0  0  0
   27.5342    4.4512    6.2028 C   0  0  0  0  0  0  0  0  0  0  0  0
   27.4949    5.7803    5.7596 C   0  0  0  0  0  0  0  0  0  0  0  0
   25.3029    8.0798    4.4557 C   0  0  0  0  0  0  0  0  0  0  0  0
   26.1701    7.8442    5.5579 O   0  0  0  0  0  0  0  0  0  0  0  0
   26.1900    0.9858    5.2946 C   0  0  0  0  0  0  0  0  0  0  0  0
   24.8904    0.8856    4.7924 C   0  0  0  0  0  0  0  0  0  0  0  0
   24.6861    0.6581    3.4294 C   0  0  0  0  0  0  0  0  0  0  0  0
   25.7692    0.5228    2.5569 C   0  0  0  0  0  0  0  0  0  0  0  0
   27.0670    0.6207    3.0596 C   0  0  0  0  0  0  0  0  0  0  0  0
   27.2771    0.8538    4.4234 C   0  0  0  0  0  0  0  0  0  0  0  0
   25.4266    0.3001    1.2521 O   0  0  0  0  0  0  0  0  0  0  0  0
   26.2926    0.8345    0.2589 C   0  0  0  0  0  0  0  0  0  0  0  0
   26.3589   -2.0088    6.8514 N   0  0  0  0  0  0  0  0  0  0  0  0
   27.1022   -2.3348    6.2942 H   0  0  0  0  0  0  0  0  0  0  0  0
   24.9796   -2.4230    6.5976 C   0  0  0  0  0  0  0  0  0  0  0  0
   24.7132   -3.8425    7.1137 C   0  0  0  0  0  0  0  0  0  0  0  0
   24.5732   -3.8348    8.5379 O   0  0  0  0  0  0  0  0  0  0  0  0
   25.3913   -3.5048    8.9414 H   0  0  0  0  0  0  0  0  0  0  0  0
 17 18  1  0
 18 11  1  0
 11 12  2  0
 12 13  1  0
 13 14  2  0
 14  1  1  0
  1  2  1  0
  2  3  1  0
  3  4  2  0
  4  5  1  0
  5  6  1  0
  5  7  2  0
  7  8  1  0
  8 27  1  0
 27 29  1  0
 29 30  1  0
 30 31  1  0
  8  9  2  0
  9 10  1  0
 10 19  1  0
 19 20  2  0
 20 21  1  0
 21 22  2  0
 22 25  1  0
 25 26  1  0
 22 23  1  0
 23 24  2  0
 14 15  1  0
 15 16  2  0
 16 11  1  0
 10  1  2  0
 24 19  1  0
  9  3  1  0
 27 28  1  0
 31 32  1  0
M  END
> <minimizedAffinity>
-2.96616

> <CNNscore>
0.2826957405

> <CNNaffinity>
5.1632761955

> <CNN_VS>
1.4596362114

> <CNNaffinity_variance>
0.2147585899

$$$$
