


 27 30  0  0  0  0  0  0  0  0999 V2000
    8.5792   57.1540   -0.4618 C   0  0  0  0  0  0  0  0  0  0  0  0
    8.7267   58.3621   -0.9913 N   0  0  0  0  0  0  0  0  0  0  0  0
    7.6036   59.0608   -0.6510 C   0  0  0  0  0  0  0  0  0  0  0  0
    7.2162   60.3881   -0.9104 C   0  0  0  0  0  0  0  0  0  0  0  0
    6.0501   60.9248   -0.4367 N   0  0  0  0  0  0  0  0  0  0  0  0
    5.3146   60.0954    0.3217 C   0  0  0  0  0  0  0  0  0  0  0  0
    4.1369   60.3824    0.9533 N   0  0  0  0  0  0  0  0  0  0  0  0
    3.7432   59.2793    1.6563 C   0  0  0  0  0  0  0  0  0  0  0  0
    2.3119   59.3841    2.5635 Cl  0  0  0  0  0  0  0  0  0  0  0  0
    4.6424   58.2506    1.4909 C   0  0  0  0  0  0  0  0  0  0  0  0
    5.6240   58.7827    0.6175 C   0  0  0  0  0  0  0  0  0  0  0  0
    6.7702   58.2535    0.0986 C   0  0  0  0  0  0  0  0  0  0  0  0
    7.3325   57.0200    0.1487 N   0  0  0  0  0  0  0  0  0  0  0  0
    3.6540   61.2391    0.9090 H   0  0  0  0  0  0  0  0  0  0  0  0
    6.7388   55.8025    0.6919 C   0  0  0  0  0  0  0  0  0  0  0  0
    6.4252   54.7006   -0.3349 C   0  0  0  0  0  0  0  0  0  0  0  0
    5.6927   53.5301    0.3241 C   0  0  0  0  0  0  0  0  0  0  0  0
    6.4880   52.9566    1.5104 C   0  0  0  0  0  0  0  0  0  0  0  0
    6.7982   54.0658    2.5331 C   0  0  0  0  0  0  0  0  0  0  0  0
    7.5158   55.2573    1.8959 C   0  0  0  0  0  0  0  0  0  0  0  0
    5.7099   51.7904    2.1490 C   0  0  0  0  0  0  0  0  0  0  0  0
    4.3176   51.7311    1.6803 C   0  0  0  0  0  0  0  0  0  0  0  0
    3.2205   51.6821    1.3066 N   0  0  0  0  0  0  0  0  0  0  0  0
   10.6717   56.4169   -1.6173 C   0  0  0  0  0  0  0  0  0  0  0  0
    9.6755   56.1315   -0.5032 C   0  0  0  0  0  0  0  0  0  0  0  0
   10.3623   56.2313    0.7468 O   0  0  0  0  0  0  0  0  0  0  0  0
   10.7174   57.1281    0.8499 H   0  0  0  0  0  0  0  0  0  0  0  0
 25 24  1  0
 25 26  1  0
 25  1  1  0
  1  2  2  0
  2  3  1  0
  3  4  2  0
  4  5  1  0
  5  6  2  0
  6  7  1  0
  7  8  1  0
  8  9  1  0
  8 10  2  0
 10 11  1  0
 11 12  2  0
 12 13  1  0
 15 13  1  0
 15 16  1  0
 16 17  1  0
 17 18  1  0
 18 21  1  0
 21 22  1  0
 22 23  3  0
 18 19  1  0
 19 20  1  0
 13  1  1  0
 20 15  1  0
 12  3  1  0
 11  6  1  0
 26 27  1  0
  7 14  1  0
M  END
> <minimizedAffinity>
-8.00105

> <CNNscore>
0.9892351627

> <CNNaffinity>
8.1991872787

> <CNN_VS>
8.1109247208

> <CNNaffinity_variance>
0.0076684360

$$$$



 27 30  0  0  0  0  0  0  0  0999 V2000
    5.4450   56.4596    1.3391 C   0  0  0  0  0  0  0  0  0  0  0  0
    4.8464   57.6422    1.4089 N   0  0  0  0  0  0  0  0  0  0  0  0
    5.6413   58.5071    0.7122 C   0  0  0  0  0  0  0  0  0  0  0  0
    5.5034   59.8778    0.4275 C   0  0  0  0  0  0  0  0  0  0  0  0
    6.4021   60.5687   -0.3387 N   0  0  0  0  0  0  0  0  0  0  0  0
    7.4136   59.8309   -0.8249 C   0  0  0  0  0  0  0  0  0  0  0  0
    8.4199   60.2523   -1.6483 N   0  0  0  0  0  0  0  0  0  0  0  0
    9.2134   59.1807   -1.9449 C   0  0  0  0  0  0  0  0  0  0  0  0
   10.5306   59.4313   -2.9865 Cl  0  0  0  0  0  0  0  0  0  0  0  0
    8.7535   58.0460   -1.3165 C   0  0  0  0  0  0  0  0  0  0  0  0
    7.6197   58.4863   -0.5882 C   0  0  0  0  0  0  0  0  0  0  0  0
    6.7355   57.8259    0.2150 C   0  0  0  0  0  0  0  0  0  0  0  0
    6.6702   56.5530    0.6795 N   0  0  0  0  0  0  0  0  0  0  0  0
    8.5507   61.1726   -1.9727 H   0  0  0  0  0  0  0  0  0  0  0  0
    7.6872   55.5144    0.5492 C   0  0  0  0  0  0  0  0  0  0  0  0
    8.8774   55.6244    1.5178 C   0  0  0  0  0  0  0  0  0  0  0  0
    9.9365   54.5649    1.2067 C   0  0  0  0  0  0  0  0  0  0  0  0
    9.3449   53.1443    1.2323 C   0  0  0  0  0  0  0  0  0  0  0  0
    8.1540   53.0429    0.2607 C   0  0  0  0  0  0  0  0  0  0  0  0
    7.0872   54.1036    0.5388 C   0  0  0  0  0  0  0  0  0  0  0  0
   10.4414   52.1134    0.9036 C   0  0  0  0  0  0  0  0  0  0  0  0
   10.0226   50.7397    1.2187 C   0  0  0  0  0  0  0  0  0  0  0  0
    9.6896   49.6575    1.4710 N   0  0  0  0  0  0  0  0  0  0  0  0
    5.4675   54.7433    3.1587 C   0  0  0  0  0  0  0  0  0  0  0  0
    4.8032   55.2139    1.8732 C   0  0  0  0  0  0  0  0  0  0  0  0
    3.4480   55.5588    2.1710 O   0  0  0  0  0  0  0  0  0  0  0  0
    3.4329   56.2744    2.8257 H   0  0  0  0  0  0  0  0  0  0  0  0
 25 24  1  0
 25 26  1  0
 25  1  1  0
  1  2  2  0
  2  3  1  0
  3  4  2  0
  4  5  1  0
  5  6  2  0
  6  7  1  0
  7  8  1  0
  8  9  1  0
  8 10  2  0
 10 11  1  0
 11 12  2  0
 12 13  1  0
 15 13  1  0
 15 16  1  0
 16 17  1  0
 17 18  1  0
 18 21  1  0
 21 22  1  0
 22 23  3  0
 18 19  1  0
 19 20  1  0
 13  1  1  0
 20 15  1  0
 12  3  1  0
 11  6  1  0
 26 27  1  0
  7 14  1  0
M  END
> <minimizedAffinity>
-8.69715

> <CNNscore>
0.8169968128

> <CNNaffinity>
7.1537113190

> <CNN_VS>
5.8445591927

> <CNNaffinity_variance>
0.0349382721

$$$$



 27 30  0  0  0  0  0  0  0  0999 V2000
    4.7643   58.1101    0.7829 C   0  0  0  0  0  0  0  0  0  0  0  0
    4.9787   59.3519    0.3662 N   0  0  0  0  0  0  0  0  0  0  0  0
    6.2293   59.3531   -0.1828 C   0  0  0  0  0  0  0  0  0  0  0  0
    6.9756   60.3723   -0.8017 C   0  0  0  0  0  0  0  0  0  0  0  0
    8.2164   60.1599   -1.3378 N   0  0  0  0  0  0  0  0  0  0  0  0
    8.6576   58.8940   -1.2547 C   0  0  0  0  0  0  0  0  0  0  0  0
    9.8334   58.3970   -1.7433 N   0  0  0  0  0  0  0  0  0  0  0  0
    9.8747   57.0555   -1.4890 C   0  0  0  0  0  0  0  0  0  0  0  0
   11.2301   56.1860   -2.0273 Cl  0  0  0  0  0  0  0  0  0  0  0  0
    8.7405   56.6515   -0.8225 C   0  0  0  0  0  0  0  0  0  0  0  0
    7.9882   57.8423   -0.6612 C   0  0  0  0  0  0  0  0  0  0  0  0
    6.7710   58.0854   -0.0935 C   0  0  0  0  0  0  0  0  0  0  0  0
    5.8933   57.3134    0.5948 N   0  0  0  0  0  0  0  0  0  0  0  0
   10.5322   58.9178   -2.2011 H   0  0  0  0  0  0  0  0  0  0  0  0
    6.1045   55.9501    1.0713 C   0  0  0  0  0  0  0  0  0  0  0  0
    5.8151   55.7155    2.5639 C   0  0  0  0  0  0  0  0  0  0  0  0
    6.1912   54.2913    2.9776 C   0  0  0  0  0  0  0  0  0  0  0  0
    5.4734   53.2394    2.1133 C   0  0  0  0  0  0  0  0  0  0  0  0
    5.7678   53.4817    0.6209 C   0  0  0  0  0  0  0  0  0  0  0  0
    5.4168   54.9054    0.1847 C   0  0  0  0  0  0  0  0  0  0  0  0
    5.8892   51.8239    2.5565 C   0  0  0  0  0  0  0  0  0  0  0  0
    4.7279   50.9760    2.8634 C   0  0  0  0  0  0  0  0  0  0  0  0
    3.8090   50.3110    3.1061 N   0  0  0  0  0  0  0  0  0  0  0  0
    3.4427   56.2063    1.7240 C   0  0  0  0  0  0  0  0  0  0  0  0
    3.4356   57.6745    1.3251 C   0  0  0  0  0  0  0  0  0  0  0  0
    3.2082   58.4559    2.5006 O   0  0  0  0  0  0  0  0  0  0  0  0
    3.9214   58.2957    3.1383 H   0  0  0  0  0  0  0  0  0  0  0  0
 25 24  1  0
 25 26  1  0
 25  1  1  0
  1  2  2  0
  2  3  1  0
  3  4  2  0
  4  5  1  0
  5  6  2  0
  6  7  1  0
  7  8  1  0
  8  9  1  0
  8 10  2  0
 10 11  1  0
 11 12  2  0
 12 13  1  0
 15 13  1  0
 15 16  1  0
 16 17  1  0
 17 18  1  0
 18 21  1  0
 21 22  1  0
 22 23  3  0
 18 19  1  0
 19 20  1  0
 13  1  1  0
 20 15  1  0
 12  3  1  0
 11  6  1  0
 26 27  1  0
  7 14  1  0
M  END
> <minimizedAffinity>
-8.71251

> <CNNscore>
0.7294121385

> <CNNaffinity>
7.5757288933

> <CNN_VS>
5.5258288383

> <CNNaffinity_variance>
0.1592517644

$$$$



 27 30  0  0  0  0  0  0  0  0999 V2000
    5.0146   54.7844    1.6958 C   0  0  0  0  0  0  0  0  0  0  0  0
    4.0740   55.6949    1.9147 N   0  0  0  0  0  0  0  0  0  0  0  0
    4.5585   56.8654    1.4044 C   0  0  0  0  0  0  0  0  0  0  0  0
    3.9971   58.1530    1.3278 C   0  0  0  0  0  0  0  0  0  0  0  0
    4.6350   59.2041    0.7276 N   0  0  0  0  0  0  0  0  0  0  0  0
    5.8289   58.9063    0.1891 C   0  0  0  0  0  0  0  0  0  0  0  0
    6.6540   59.7478   -0.5032 N   0  0  0  0  0  0  0  0  0  0  0  0
    7.7454   59.0388   -0.9181 C   0  0  0  0  0  0  0  0  0  0  0  0
    8.9201   59.8524   -1.8352 Cl  0  0  0  0  0  0  0  0  0  0  0  0
    7.6640   57.7307   -0.4985 C   0  0  0  0  0  0  0  0  0  0  0  0
    6.4470   57.6722    0.2262 C   0  0  0  0  0  0  0  0  0  0  0  0
    5.8130   56.6481    0.8683 C   0  0  0  0  0  0  0  0  0  0  0  0
    6.1502   55.3597    1.1263 N   0  0  0  0  0  0  0  0  0  0  0  0
    6.4896   60.7034   -0.6740 H   0  0  0  0  0  0  0  0  0  0  0  0
    7.4428   54.7236    0.8927 C   0  0  0  0  0  0  0  0  0  0  0  0
    8.6752   55.6040    1.1627 C   0  0  0  0  0  0  0  0  0  0  0  0
    9.9632   54.8806    0.7642 C   0  0  0  0  0  0  0  0  0  0  0  0
   10.0980   53.5239    1.4782 C   0  0  0  0  0  0  0  0  0  0  0  0
    8.8604   52.6491    1.2033 C   0  0  0  0  0  0  0  0  0  0  0  0
    7.5562   53.3563    1.5770 C   0  0  0  0  0  0  0  0  0  0  0  0
   11.4002   52.8274    1.0397 C   0  0  0  0  0  0  0  0  0  0  0  0
   11.3771   52.4542   -0.3822 C   0  0  0  0  0  0  0  0  0  0  0  0
   11.3541   52.1604   -1.5042 N   0  0  0  0  0  0  0  0  0  0  0  0
    5.1039   52.4541    0.7908 C   0  0  0  0  0  0  0  0  0  0  0  0
    4.7958   53.3313    1.9953 C   0  0  0  0  0  0  0  0  0  0  0  0
    5.7139   52.9959    3.0388 O   0  0  0  0  0  0  0  0  0  0  0  0
    6.6207   53.1635    2.7379 H   0  0  0  0  0  0  0  0  0  0  0  0
 25 24  1  0
 25 26  1  0
 25  1  1  0
  1  2  2  0
  2  3  1  0
  3  4  2  0
  4  5  1  0
  5  6  2  0
  6  7  1  0
  7  8  1  0
  8  9  1  0
  8 10  2  0
 10 11  1  0
 11 12  2  0
 12 13  1  0
 15 13  1  0
 15 16  1  0
 16 17  1  0
 17 18  1  0
 18 21  1  0
 21 22  1  0
 22 23  3  0
 18 19  1  0
 19 20  1  0
 13  1  1  0
 20 15  1  0
 12  3  1  0
 11  6  1  0
 26 27  1  0
  7 14  1  0
M  END
> <minimizedAffinity>
-9.06221

> <CNNscore>
0.6403244138

> <CNNaffinity>
7.2351546288

> <CNN_VS>
4.6328463554

> <CNNaffinity_variance>
0.0157297719

$$$$



 27 30  0  0  0  0  0  0  0  0999 V2000
    9.9271   55.3426    0.1484 C   0  0  0  0  0  0  0  0  0  0  0  0
   10.2588   56.4049   -0.5748 N   0  0  0  0  0  0  0  0  0  0  0  0
    9.1627   57.2198   -0.5695 C   0  0  0  0  0  0  0  0  0  0  0  0
    8.9371   58.4839   -1.1440 C   0  0  0  0  0  0  0  0  0  0  0  0
    7.7642   59.1704   -0.9854 N   0  0  0  0  0  0  0  0  0  0  0  0
    6.8520   58.5577   -0.2129 C   0  0  0  0  0  0  0  0  0  0  0  0
    5.6218   59.0336    0.1452 N   0  0  0  0  0  0  0  0  0  0  0  0
    5.0306   58.1232    0.9745 C   0  0  0  0  0  0  0  0  0  0  0  0
    3.4928   58.4921    1.5923 Cl  0  0  0  0  0  0  0  0  0  0  0  0
    5.8507   57.0346    1.1654 C   0  0  0  0  0  0  0  0  0  0  0  0
    6.9966   57.3196    0.3809 C   0  0  0  0  0  0  0  0  0  0  0  0
    8.1574   56.6322    0.1738 C   0  0  0  0  0  0  0  0  0  0  0  0
    8.5952   55.4067    0.5569 N   0  0  0  0  0  0  0  0  0  0  0  0
    5.2283   59.8879   -0.1455 H   0  0  0  0  0  0  0  0  0  0  0  0
    7.8213   54.3625    1.2208 C   0  0  0  0  0  0  0  0  0  0  0  0
    6.5174   54.8269    1.8922 C   0  0  0  0  0  0  0  0  0  0  0  0
    5.8586   53.6800    2.6612 C   0  0  0  0  0  0  0  0  0  0  0  0
    5.5996   52.4626    1.7558 C   0  0  0  0  0  0  0  0  0  0  0  0
    6.9094   52.0045    1.0873 C   0  0  0  0  0  0  0  0  0  0  0  0
    7.5985   53.1381    0.3253 C   0  0  0  0  0  0  0  0  0  0  0  0
    4.9472   51.3309    2.5723 C   0  0  0  0  0  0  0  0  0  0  0  0
    3.6078   50.9881    2.0722 C   0  0  0  0  0  0  0  0  0  0  0  0
    2.5529   50.7141    1.6750 N   0  0  0  0  0  0  0  0  0  0  0  0
   10.5217   53.5093    1.7430 C   0  0  0  0  0  0  0  0  0  0  0  0
   10.9230   54.2748    0.4908 C   0  0  0  0  0  0  0  0  0  0  0  0
   10.9243   53.3621   -0.6097 O   0  0  0  0  0  0  0  0  0  0  0  0
   10.0345   52.9935   -0.7251 H   0  0  0  0  0  0  0  0  0  0  0  0
 25 24  1  0
 25 26  1  0
 25  1  1  0
  1  2  2  0
  2  3  1  0
  3  4  2  0
  4  5  1  0
  5  6  2  0
  6  7  1  0
  7  8  1  0
  8  9  1  0
  8 10  2  0
 10 11  1  0
 11 12  2  0
 12 13  1  0
 15 13  1  0
 15 16  1  0
 16 17  1  0
 17 18  1  0
 18 21  1  0
 21 22  1  0
 22 23  3  0
 18 19  1  0
 19 20  1  0
 13  1  1  0
 20 15  1  0
 12  3  1  0
 11  6  1  0
 26 27  1  0
  7 14  1  0
M  END
> <minimizedAffinity>
-8.55766

> <CNNscore>
0.6345829964

> <CNNaffinity>
7.1893601418

> <CNN_VS>
4.5622458458

> <CNNaffinity_variance>
0.0345473886

$$$$



 27 30  0  0  0  0  0  0  0  0999 V2000
    9.6738   54.6210    0.4251 C   0  0  0  0  0  0  0  0  0  0  0  0
   10.2154   55.7272   -0.0696 N   0  0  0  0  0  0  0  0  0  0  0  0
    9.1971   56.6320   -0.1682 C   0  0  0  0  0  0  0  0  0  0  0  0
    9.1772   57.9708   -0.5998 C   0  0  0  0  0  0  0  0  0  0  0  0
    8.0441   58.7376   -0.5817 N   0  0  0  0  0  0  0  0  0  0  0  0
    6.9549   58.1230   -0.0917 C   0  0  0  0  0  0  0  0  0  0  0  0
    5.7112   58.6630    0.0805 N   0  0  0  0  0  0  0  0  0  0  0  0
    4.9043   57.7181    0.6482 C   0  0  0  0  0  0  0  0  0  0  0  0
    3.2999   58.1495    0.9984 Cl  0  0  0  0  0  0  0  0  0  0  0  0
    5.5949   56.5444    0.8467 C   0  0  0  0  0  0  0  0  0  0  0  0
    6.8934   56.8151    0.3464 C   0  0  0  0  0  0  0  0  0  0  0  0
    8.0246   56.0542    0.2787 C   0  0  0  0  0  0  0  0  0  0  0  0
    8.2936   54.7571    0.5709 N   0  0  0  0  0  0  0  0  0  0  0  0
    5.4423   59.5781   -0.1633 H   0  0  0  0  0  0  0  0  0  0  0  0
    7.3334   53.7163    0.9242 C   0  0  0  0  0  0  0  0  0  0  0  0
    7.7000   52.8624    2.1503 C   0  0  0  0  0  0  0  0  0  0  0  0
    6.6925   51.7282    2.3489 C   0  0  0  0  0  0  0  0  0  0  0  0
    5.2532   52.2600    2.4681 C   0  0  0  0  0  0  0  0  0  0  0  0
    4.8945   53.1139    1.2374 C   0  0  0  0  0  0  0  0  0  0  0  0
    5.8970   54.2460    1.0053 C   0  0  0  0  0  0  0  0  0  0  0  0
    4.2738   51.0858    2.6554 C   0  0  0  0  0  0  0  0  0  0  0  0
    3.2942   51.0018    1.5622 C   0  0  0  0  0  0  0  0  0  0  0  0
    2.5247   50.9334    0.6968 N   0  0  0  0  0  0  0  0  0  0  0  0
   11.0389   52.7002   -0.4143 C   0  0  0  0  0  0  0  0  0  0  0  0
   10.5064   53.4338    0.8078 C   0  0  0  0  0  0  0  0  0  0  0  0
   11.6209   53.9473    1.5415 O   0  0  0  0  0  0  0  0  0  0  0  0
   12.1189   54.5646    0.9830 H   0  0  0  0  0  0  0  0  0  0  0  0
 25 24  1  0
 25 26  1  0
 25  1  1  0
  1  2  2  0
  2  3  1  0
  3  4  2  0
  4  5  1  0
  5  6  2  0
  6  7  1  0
  7  8  1  0
  8  9  1  0
  8 10  2  0
 10 11  1  0
 11 12  2  0
 12 13  1  0
 15 13  1  0
 15 16  1  0
 16 17  1  0
 17 18  1  0
 18 21  1  0
 21 22  1  0
 22 23  3  0
 18 19  1  0
 19 20  1  0
 13  1  1  0
 20 15  1  0
 12  3  1  0
 11  6  1  0
 26 27  1  0
  7 14  1  0
M  END
> <minimizedAffinity>
-9.49088

> <CNNscore>
0.4775805771

> <CNNaffinity>
6.7994389534

> <CNN_VS>
3.2472798824

> <CNNaffinity_variance>
0.1414609104

$$$$



 27 30  0  0  0  0  0  0  0  0999 V2000
    4.6241   58.1229    0.8655 C   0  0  0  0  0  0  0  0  0  0  0  0
    4.8263   59.3946    0.5433 N   0  0  0  0  0  0  0  0  0  0  0  0
    6.0668   59.4451   -0.0257 C   0  0  0  0  0  0  0  0  0  0  0  0
    6.7980   60.5135   -0.5761 C   0  0  0  0  0  0  0  0  0  0  0  0
    8.0299   60.3501   -1.1487 N   0  0  0  0  0  0  0  0  0  0  0  0
    8.4774   59.0839   -1.1724 C   0  0  0  0  0  0  0  0  0  0  0  0
    9.6462   58.6327   -1.7189 N   0  0  0  0  0  0  0  0  0  0  0  0
    9.6973   57.2757   -1.5708 C   0  0  0  0  0  0  0  0  0  0  0  0
   11.0462   56.4580   -2.1990 Cl  0  0  0  0  0  0  0  0  0  0  0  0
    8.5767   56.8150   -0.9182 C   0  0  0  0  0  0  0  0  0  0  0  0
    7.8228   57.9855   -0.6513 C   0  0  0  0  0  0  0  0  0  0  0  0
    6.6150   58.1772   -0.0451 C   0  0  0  0  0  0  0  0  0  0  0  0
    5.7527   57.3492    0.5960 N   0  0  0  0  0  0  0  0  0  0  0  0
   10.3348   59.1913   -2.1467 H   0  0  0  0  0  0  0  0  0  0  0  0
    5.9777   55.9541    0.9608 C   0  0  0  0  0  0  0  0  0  0  0  0
    6.1255   54.9748   -0.2164 C   0  0  0  0  0  0  0  0  0  0  0  0
    6.2283   53.5316    0.2811 C   0  0  0  0  0  0  0  0  0  0  0  0
    7.3839   53.3558    1.2822 C   0  0  0  0  0  0  0  0  0  0  0  0
    7.2288   54.3399    2.4570 C   0  0  0  0  0  0  0  0  0  0  0  0
    7.1060   55.7902    1.9858 C   0  0  0  0  0  0  0  0  0  0  0  0
    7.4429   51.8938    1.7641 C   0  0  0  0  0  0  0  0  0  0  0  0
    8.4239   51.1008    1.0088 C   0  0  0  0  0  0  0  0  0  0  0  0
    9.2009   50.4752    0.4168 N   0  0  0  0  0  0  0  0  0  0  0  0
    3.3844   56.1949    1.8668 C   0  0  0  0  0  0  0  0  0  0  0  0
    3.3070   57.6394    1.3951 C   0  0  0  0  0  0  0  0  0  0  0  0
    3.0040   58.4625    2.5241 O   0  0  0  0  0  0  0  0  0  0  0  0
    3.7068   58.3741    3.1867 H   0  0  0  0  0  0  0  0  0  0  0  0
 25 24  1  0
 25 26  1  0
 25  1  1  0
  1  2  2  0
  2  3  1  0
  3  4  2  0
  4  5  1  0
  5  6  2  0
  6  7  1  0
  7  8  1  0
  8  9  1  0
  8 10  2  0
 10 11  1  0
 11 12  2  0
 12 13  1  0
 15 13  1  0
 15 16  1  0
 16 17  1  0
 17 18  1  0
 18 21  1  0
 21 22  1  0
 22 23  3  0
 18 19  1  0
 19 20  1  0
 13  1  1  0
 20 15  1  0
 12  3  1  0
 11  6  1  0
 26 27  1  0
  7 14  1  0
M  END
> <minimizedAffinity>
-8.08158

> <CNNscore>
0.4504524767

> <CNNaffinity>
7.1232266426

> <CNN_VS>
3.2086751461

> <CNNaffinity_variance>
0.1079325154

$$$$



 27 30  0  0  0  0  0  0  0  0999 V2000
    9.0820   54.4024    0.7347 C   0  0  0  0  0  0  0  0  0  0  0  0
    8.3949   53.5915    1.5296 N   0  0  0  0  0  0  0  0  0  0  0  0
    7.2574   54.2691    1.8646 C   0  0  0  0  0  0  0  0  0  0  0  0
    6.1532   53.9047    2.6564 C   0  0  0  0  0  0  0  0  0  0  0  0
    5.0712   54.7220    2.8388 N   0  0  0  0  0  0  0  0  0  0  0  0
    5.1293   55.8905    2.1790 C   0  0  0  0  0  0  0  0  0  0  0  0
    4.1745   56.8680    2.1478 N   0  0  0  0  0  0  0  0  0  0  0  0
    4.6068   57.8687    1.3245 C   0  0  0  0  0  0  0  0  0  0  0  0
    3.5813   59.2008    1.0866 Cl  0  0  0  0  0  0  0  0  0  0  0  0
    5.8501   57.5747    0.8129 C   0  0  0  0  0  0  0  0  0  0  0  0
    6.1764   56.3210    1.3885 C   0  0  0  0  0  0  0  0  0  0  0  0
    7.2654   55.5089    1.2554 C   0  0  0  0  0  0  0  0  0  0  0  0
    8.4527   55.6410    0.6128 N   0  0  0  0  0  0  0  0  0  0  0  0
    3.3198   56.8534    2.6362 H   0  0  0  0  0  0  0  0  0  0  0  0
    8.9757   56.8401   -0.0343 C   0  0  0  0  0  0  0  0  0  0  0  0
   10.2594   56.6441   -0.8591 C   0  0  0  0  0  0  0  0  0  0  0  0
   10.7843   57.9827   -1.3821 C   0  0  0  0  0  0  0  0  0  0  0  0
    9.7191   58.7294   -2.2045 C   0  0  0  0  0  0  0  0  0  0  0  0
    8.4373   58.9211   -1.3720 C   0  0  0  0  0  0  0  0  0  0  0  0
    7.9006   57.5983   -0.8216 C   0  0  0  0  0  0  0  0  0  0  0  0
   10.2859   60.0733   -2.7004 C   0  0  0  0  0  0  0  0  0  0  0  0
   11.3327   59.8917   -3.7167 C   0  0  0  0  0  0  0  0  0  0  0  0
   12.1584   59.7531   -4.5196 N   0  0  0  0  0  0  0  0  0  0  0  0
   11.3482   53.3844    1.0263 C   0  0  0  0  0  0  0  0  0  0  0  0
   10.3376   53.9592    0.0447 C   0  0  0  0  0  0  0  0  0  0  0  0
    9.9515   52.9204   -0.8586 O   0  0  0  0  0  0  0  0  0  0  0  0
    9.5447   52.1939   -0.3611 H   0  0  0  0  0  0  0  0  0  0  0  0
 25 24  1  0
 25 26  1  0
 25  1  1  0
  1  2  2  0
  2  3  1  0
  3  4  2  0
  4  5  1  0
  5  6  2  0
  6  7  1  0
  7  8  1  0
  8  9  1  0
  8 10  2  0
 10 11  1  0
 11 12  2  0
 12 13  1  0
 15 13  1  0
 15 16  1  0
 16 17  1  0
 17 18  1  0
 18 21  1  0
 21 22  1  0
 22 23  3  0
 18 19  1  0
 19 20  1  0
 13  1  1  0
 20 15  1  0
 12  3  1  0
 11  6  1  0
 26 27  1  0
  7 14  1  0
M  END
> <minimizedAffinity>
-8.65482

> <CNNscore>
0.2959673405

> <CNNaffinity>
5.6092638969

> <CNN_VS>
1.6601588726

> <CNNaffinity_variance>
1.3238172531

$$$$



 27 30  0  0  0  0  0  0  0  0999 V2000
   10.1097   59.6434   -2.4041 C   0  0  0  0  0  0  0  0  0  0  0  0
    9.2619   60.5077   -1.8602 N   0  0  0  0  0  0  0  0  0  0  0  0
    8.3112   59.7557   -1.2310 C   0  0  0  0  0  0  0  0  0  0  0  0
    7.1849   60.1207   -0.4713 C   0  0  0  0  0  0  0  0  0  0  0  0
    6.3645   59.2020    0.1246 N   0  0  0  0  0  0  0  0  0  0  0  0
    6.7332   57.9218   -0.0463 C   0  0  0  0  0  0  0  0  0  0  0  0
    6.1252   56.8126    0.4715 N   0  0  0  0  0  0  0  0  0  0  0  0
    6.8420   55.7118    0.0968 C   0  0  0  0  0  0  0  0  0  0  0  0
    6.3103   54.1941    0.6413 Cl  0  0  0  0  0  0  0  0  0  0  0  0
    7.9195   56.0739   -0.6789 C   0  0  0  0  0  0  0  0  0  0  0  0
    7.8190   57.4845   -0.7786 C   0  0  0  0  0  0  0  0  0  0  0  0
    8.5991   58.4153   -1.4015 C   0  0  0  0  0  0  0  0  0  0  0  0
    9.6806   58.3299   -2.2158 N   0  0  0  0  0  0  0  0  0  0  0  0
    5.3087   56.8079    1.0216 H   0  0  0  0  0  0  0  0  0  0  0  0
   10.2486   57.1201   -2.8020 C   0  0  0  0  0  0  0  0  0  0  0  0
   10.7099   57.2434   -4.2644 C   0  0  0  0  0  0  0  0  0  0  0  0
   11.1663   55.8892   -4.8110 C   0  0  0  0  0  0  0  0  0  0  0  0
   12.2754   55.2695   -3.9422 C   0  0  0  0  0  0  0  0  0  0  0  0
   11.8059   55.1501   -2.4800 C   0  0  0  0  0  0  0  0  0  0  0  0
   11.3270   56.4883   -1.9139 C   0  0  0  0  0  0  0  0  0  0  0  0
   12.6954   53.9055   -4.5219 C   0  0  0  0  0  0  0  0  0  0  0  0
   11.5742   52.9557   -4.5715 C   0  0  0  0  0  0  0  0  0  0  0  0
   10.6879   52.2081   -4.6065 N   0  0  0  0  0  0  0  0  0  0  0  0
   12.5867   59.3281   -2.5524 C   0  0  0  0  0  0  0  0  0  0  0  0
   11.3762   60.0894   -3.0722 C   0  0  0  0  0  0  0  0  0  0  0  0
   11.2221   59.7889   -4.4615 O   0  0  0  0  0  0  0  0  0  0  0  0
   11.0791   58.8359   -4.5723 H   0  0  0  0  0  0  0  0  0  0  0  0
 25 24  1  0
 25 26  1  0
 25  1  1  0
  1  2  2  0
  2  3  1  0
  3  4  2  0
  4  5  1  0
  5  6  2  0
  6  7  1  0
  7  8  1  0
  8  9  1  0
  8 10  2  0
 10 11  1  0
 11 12  2  0
 12 13  1  0
 15 13  1  0
 15 16  1  0
 16 17  1  0
 17 18  1  0
 18 21  1  0
 21 22  1  0
 22 23  3  0
 18 19  1  0
 19 20  1  0
 13  1  1  0
 20 15  1  0
 12  3  1  0
 11  6  1  0
 26 27  1  0
  7 14  1  0
M  END
> <minimizedAffinity>
-4.99595

> <CNNscore>
0.2917982638

> <CNNaffinity>
6.4475159645

> <CNN_VS>
1.8813740015

> <CNNaffinity_variance>
0.0228765402

$$$$
