


 36 38  0  0  0  0  0  0  0  0999 V2000
   11.4745   53.8781   92.7491 C   0  0  0  0  0  0  0  0  0  0  0  0
   10.3425   53.4211   92.5695 O   0  0  0  0  0  0  0  0  0  0  0  0
   12.3047   54.0775   91.6617 N   0  0  0  0  0  0  0  0  0  0  0  0
   13.6977   54.4940   91.6374 C   0  0  0  0  0  0  0  0  0  0  0  0
   14.1359   54.3377   90.1766 C   0  0  0  0  0  0  0  0  0  0  0  0
   15.0709   55.3254   89.7757 O   0  0  0  0  0  0  0  0  0  0  0  0
   12.8243   54.5096   89.4095 C   0  0  0  0  0  0  0  0  0  0  0  0
   11.8153   53.8105   90.3149 C   0  0  0  0  0  0  0  0  0  0  0  0
   14.6861   56.2064   89.9053 H   0  0  0  0  0  0  0  0  0  0  0  0
   11.8190   52.2959   90.0126 C   0  0  0  0  0  0  0  0  0  0  0  0
   12.4123   51.4751   90.7117 O   0  0  0  0  0  0  0  0  0  0  0  0
   11.1885   51.9638   88.8319 N   0  0  0  0  0  0  0  0  0  0  0  0
   10.6823   52.6566   88.3491 H   0  0  0  0  0  0  0  0  0  0  0  0
   11.2489   50.6300   88.2833 C   0  0  0  0  0  0  0  0  0  0  0  0
   11.6409   50.6826   86.8284 C   0  0  0  0  0  0  0  0  0  0  0  0
   11.8802   49.4969   86.1207 C   0  0  0  0  0  0  0  0  0  0  0  0
   12.2890   49.5361   84.7856 C   0  0  0  0  0  0  0  0  0  0  0  0
   12.4742   50.7612   84.1337 C   0  0  0  0  0  0  0  0  0  0  0  0
   12.2374   51.9470   84.8415 C   0  0  0  0  0  0  0  0  0  0  0  0
   11.8288   51.9089   86.1784 C   0  0  0  0  0  0  0  0  0  0  0  0
   12.9026   50.7899   82.7359 C   0  0  0  0  0  0  0  0  0  0  0  0
   11.8420   50.2463   81.4955 S   0  0  0  0  0  0  0  0  0  0  0  0
   13.0237   50.6520   80.3262 C   0  0  0  0  0  0  0  0  0  0  0  0
   14.1491   51.1492   80.7843 N   0  0  0  0  0  0  0  0  0  0  0  0
   14.0910   51.2333   82.1694 C   0  0  0  0  0  0  0  0  0  0  0  0
   15.2777   51.7724   82.8865 C   0  0  0  0  0  0  0  0  0  0  0  0
   12.0709   54.1001   94.1792 C   0  0  0  0  0  0  0  0  0  0  0  0
   10.3837   57.1086   95.7908 C   0  0  0  0  0  0  0  0  0  0  0  0
   10.4641   55.8307   95.0006 C   0  0  0  0  0  0  0  0  0  0  0  0
    9.4631   55.2343   94.6258 O   0  0  0  0  0  0  0  0  0  0  0  0
   11.7532   55.4214   94.7441 N   0  0  0  0  0  0  0  0  0  0  0  0
   12.4933   56.0381   94.9471 H   0  0  0  0  0  0  0  0  0  0  0  0
   11.8948   52.9226   95.2057 C   0  0  0  0  0  0  0  0  0  0  0  0
   10.7370   51.9974   94.7645 C   0  0  0  0  0  0  0  0  0  0  0  0
   13.1738   52.0494   95.2209 C   0  0  0  0  0  0  0  0  0  0  0  0
   11.6305   53.3913   96.6467 C   0  0  0  0  0  0  0  0  0  0  0  0
 28 29  1  0
 29 30  2  0
 29 31  1  0
 27 31  1  0
 27  1  1  0
  1  2  2  0
  1  3  1  0
  3  4  1  0
  4  5  1  0
  5  6  1  0
  5  7  1  0
  7  8  1  0
  8 10  1  0
 10 11  2  0
 10 12  1  0
 12 14  1  0
 14 15  1  0
 15 16  2  0
 16 17  1  0
 17 18  2  0
 18 21  1  0
 21 22  1  0
 22 23  1  0
 23 24  2  0
 24 25  1  0
 25 26  1  0
 18 19  1  0
 19 20  2  0
 27 33  1  0
 33 34  1  0
 33 35  1  0
 33 36  1  0
  8  3  1  0
 20 15  1  0
 25 21  2  0
 31 32  1  0
  6  9  1  0
 12 13  1  0
M  END
> <minimizedAffinity>
-8.26081

> <CNNscore>
0.6623301506

> <CNNaffinity>
5.7693848610

> <CNN_VS>
3.8212375641

> <CNNaffinity_variance>
0.9438576698

$$$$



 36 38  0  0  0  0  0  0  0  0999 V2000
   10.3474   52.1703   85.3788 C   0  0  0  0  0  0  0  0  0  0  0  0
   10.9360   53.2536   85.3283 O   0  0  0  0  0  0  0  0  0  0  0  0
    9.7991   51.7527   86.5773 N   0  0  0  0  0  0  0  0  0  0  0  0
    9.1659   50.4847   86.9020 C   0  0  0  0  0  0  0  0  0  0  0  0
    8.9489   50.5235   88.4191 C   0  0  0  0  0  0  0  0  0  0  0  0
    7.7619   49.8599   88.8207 O   0  0  0  0  0  0  0  0  0  0  0  0
    8.8400   52.0213   88.7073 C   0  0  0  0  0  0  0  0  0  0  0  0
    9.8629   52.6200   87.7471 C   0  0  0  0  0  0  0  0  0  0  0  0
    7.0000   50.2620   88.3748 H   0  0  0  0  0  0  0  0  0  0  0  0
   11.2633   52.5745   88.3967 C   0  0  0  0  0  0  0  0  0  0  0  0
   11.9065   51.5337   88.5292 O   0  0  0  0  0  0  0  0  0  0  0  0
   11.6773   53.7861   88.9092 N   0  0  0  0  0  0  0  0  0  0  0  0
   11.1454   54.5924   88.7188 H   0  0  0  0  0  0  0  0  0  0  0  0
   12.8676   53.9067   89.7167 C   0  0  0  0  0  0  0  0  0  0  0  0
   12.5007   53.9854   91.1769 C   0  0  0  0  0  0  0  0  0  0  0  0
   11.2081   53.6441   91.5971 C   0  0  0  0  0  0  0  0  0  0  0  0
   10.8441   53.7580   92.9409 C   0  0  0  0  0  0  0  0  0  0  0  0
   11.7626   54.2227   93.8900 C   0  0  0  0  0  0  0  0  0  0  0  0
   13.0544   54.5663   93.4700 C   0  0  0  0  0  0  0  0  0  0  0  0
   13.4195   54.4534   92.1248 C   0  0  0  0  0  0  0  0  0  0  0  0
   11.3702   54.3381   95.2939 C   0  0  0  0  0  0  0  0  0  0  0  0
   11.4295   52.9616   96.3238 S   0  0  0  0  0  0  0  0  0  0  0  0
   10.9134   53.9356   97.6327 C   0  0  0  0  0  0  0  0  0  0  0  0
   10.6894   55.2010   97.3636 N   0  0  0  0  0  0  0  0  0  0  0  0
   10.9490   55.4443   96.0210 C   0  0  0  0  0  0  0  0  0  0  0  0
   10.7513   56.8277   95.5113 C   0  0  0  0  0  0  0  0  0  0  0  0
   10.3267   51.1714   84.1738 C   0  0  0  0  0  0  0  0  0  0  0  0
    7.8874   53.0297   81.9174 C   0  0  0  0  0  0  0  0  0  0  0  0
    8.5549   52.6498   83.2113 C   0  0  0  0  0  0  0  0  0  0  0  0
    8.3349   53.2480   84.2562 O   0  0  0  0  0  0  0  0  0  0  0  0
    9.4109   51.5779   83.0959 N   0  0  0  0  0  0  0  0  0  0  0  0
    9.4105   51.0618   82.2575 H   0  0  0  0  0  0  0  0  0  0  0  0
   11.7220   50.6689   83.6523 C   0  0  0  0  0  0  0  0  0  0  0  0
   12.8298   51.6788   84.0315 C   0  0  0  0  0  0  0  0  0  0  0  0
   12.0876   49.3340   84.3474 C   0  0  0  0  0  0  0  0  0  0  0  0
   11.7674   50.4336   82.1329 C   0  0  0  0  0  0  0  0  0  0  0  0
 28 29  1  0
 29 30  2  0
 29 31  1  0
 27 31  1  0
 27  1  1  0
  1  2  2  0
  1  3  1  0
  3  4  1  0
  4  5  1  0
  5  6  1  0
  5  7  1  0
  7  8  1  0
  8 10  1  0
 10 11  2  0
 10 12  1  0
 12 14  1  0
 14 15  1  0
 15 16  2  0
 16 17  1  0
 17 18  2  0
 18 21  1  0
 21 22  1  0
 22 23  1  0
 23 24  2  0
 24 25  1  0
 25 26  1  0
 18 19  1  0
 19 20  2  0
 27 33  1  0
 33 34  1  0
 33 35  1  0
 33 36  1  0
  8  3  1  0
 20 15  1  0
 25 21  2  0
 31 32  1  0
  6  9  1  0
 12 13  1  0
M  END
> <minimizedAffinity>
-7.92686

> <CNNscore>
0.5887550712

> <CNNaffinity>
6.2744045258

> <CNN_VS>
3.6940875053

> <CNNaffinity_variance>
0.1301198155

$$$$



 36 38  0  0  0  0  0  0  0  0999 V2000
    9.9392   51.2291   87.5850 C   0  0  0  0  0  0  0  0  0  0  0  0
    9.9123   51.9950   86.6179 O   0  0  0  0  0  0  0  0  0  0  0  0
   10.4328   51.6825   88.7943 N   0  0  0  0  0  0  0  0  0  0  0  0
   10.6633   50.9423   90.0245 C   0  0  0  0  0  0  0  0  0  0  0  0
   11.4085   51.9172   90.9435 C   0  0  0  0  0  0  0  0  0  0  0  0
   11.0667   51.7532   92.3098 O   0  0  0  0  0  0  0  0  0  0  0  0
   10.9377   53.2827   90.4415 C   0  0  0  0  0  0  0  0  0  0  0  0
   10.8526   53.0714   88.9333 C   0  0  0  0  0  0  0  0  0  0  0  0
   10.1104   51.8717   92.4203 H   0  0  0  0  0  0  0  0  0  0  0  0
   12.2455   53.2963   88.3051 C   0  0  0  0  0  0  0  0  0  0  0  0
   13.2509   53.5346   88.9735 O   0  0  0  0  0  0  0  0  0  0  0  0
   12.2367   53.3119   86.9260 N   0  0  0  0  0  0  0  0  0  0  0  0
   11.4136   53.0558   86.4504 H   0  0  0  0  0  0  0  0  0  0  0  0
   13.3990   53.6928   86.1596 C   0  0  0  0  0  0  0  0  0  0  0  0
   13.4528   52.9109   84.8717 C   0  0  0  0  0  0  0  0  0  0  0  0
   12.3763   52.0950   84.4982 C   0  0  0  0  0  0  0  0  0  0  0  0
   12.4353   51.3306   83.3305 C   0  0  0  0  0  0  0  0  0  0  0  0
   13.5746   51.3606   82.5171 C   0  0  0  0  0  0  0  0  0  0  0  0
   14.6520   52.1744   82.8913 C   0  0  0  0  0  0  0  0  0  0  0  0
   14.5943   52.9395   84.0605 C   0  0  0  0  0  0  0  0  0  0  0  0
   13.6251   50.5560   81.2973 C   0  0  0  0  0  0  0  0  0  0  0  0
   12.4856   49.2916   81.0481 S   0  0  0  0  0  0  0  0  0  0  0  0
   13.1890   48.9774   79.5200 C   0  0  0  0  0  0  0  0  0  0  0  0
   14.2109   49.7299   79.1839 N   0  0  0  0  0  0  0  0  0  0  0  0
   14.4710   50.6419   80.1986 C   0  0  0  0  0  0  0  0  0  0  0  0
   15.6014   51.5907   80.0118 C   0  0  0  0  0  0  0  0  0  0  0  0
    9.5784   49.7110   87.4615 C   0  0  0  0  0  0  0  0  0  0  0  0
    5.8324   49.3616   86.8785 C   0  0  0  0  0  0  0  0  0  0  0  0
    7.2068   49.9494   86.7067 C   0  0  0  0  0  0  0  0  0  0  0  0
    7.4480   50.8021   85.8624 O   0  0  0  0  0  0  0  0  0  0  0  0
    8.1368   49.4429   87.5862 N   0  0  0  0  0  0  0  0  0  0  0  0
    7.8245   48.8779   88.3295 H   0  0  0  0  0  0  0  0  0  0  0  0
   10.2625   48.9183   86.2889 C   0  0  0  0  0  0  0  0  0  0  0  0
   11.8015   48.9934   86.4191 C   0  0  0  0  0  0  0  0  0  0  0  0
    9.8861   47.4190   86.3849 C   0  0  0  0  0  0  0  0  0  0  0  0
    9.8606   49.4134   84.8891 C   0  0  0  0  0  0  0  0  0  0  0  0
 28 29  1  0
 29 30  2  0
 29 31  1  0
 27 31  1  0
 27  1  1  0
  1  2  2  0
  1  3  1  0
  3  4  1  0
  4  5  1  0
  5  6  1  0
  5  7  1  0
  7  8  1  0
  8 10  1  0
 10 11  2  0
 10 12  1  0
 12 14  1  0
 14 15  1  0
 15 16  2  0
 16 17  1  0
 17 18  2  0
 18 21  1  0
 21 22  1  0
 22 23  1  0
 23 24  2  0
 24 25  1  0
 25 26  1  0
 18 19  1  0
 19 20  2  0
 27 33  1  0
 33 34  1  0
 33 35  1  0
 33 36  1  0
  8  3  1  0
 20 15  1  0
 25 21  2  0
 31 32  1  0
  6  9  1  0
 12 13  1  0
M  END
> <minimizedAffinity>
-8.25774

> <CNNscore>
0.5224898458

> <CNNaffinity>
6.2940945625

> <CNN_VS>
3.2886004448

> <CNNaffinity_variance>
0.1788850278

$$$$



 36 38  0  0  0  0  0  0  0  0999 V2000
   11.4981   53.8981   92.7868 C   0  0  0  0  0  0  0  0  0  0  0  0
   10.4003   53.3629   92.6109 O   0  0  0  0  0  0  0  0  0  0  0  0
   12.2897   54.1953   91.6928 N   0  0  0  0  0  0  0  0  0  0  0  0
   13.6467   54.7165   91.6591 C   0  0  0  0  0  0  0  0  0  0  0  0
   14.0668   54.6416   90.1866 C   0  0  0  0  0  0  0  0  0  0  0  0
   14.9171   55.7099   89.8038 O   0  0  0  0  0  0  0  0  0  0  0  0
   12.7313   54.7390   89.4482 C   0  0  0  0  0  0  0  0  0  0  0  0
   11.7954   53.9362   90.3463 C   0  0  0  0  0  0  0  0  0  0  0  0
   14.4699   56.5545   89.9699 H   0  0  0  0  0  0  0  0  0  0  0  0
   11.9069   52.4370   89.9925 C   0  0  0  0  0  0  0  0  0  0  0  0
   12.4597   51.6158   90.7236 O   0  0  0  0  0  0  0  0  0  0  0  0
   11.4267   52.1254   88.7377 N   0  0  0  0  0  0  0  0  0  0  0  0
   10.9430   52.8139   88.2266 H   0  0  0  0  0  0  0  0  0  0  0  0
   11.6125   50.8193   88.1520 C   0  0  0  0  0  0  0  0  0  0  0  0
   11.4541   50.8927   86.6545 C   0  0  0  0  0  0  0  0  0  0  0  0
   11.2448   52.1290   86.0287 C   0  0  0  0  0  0  0  0  0  0  0  0
   11.0504   52.2028   84.6474 C   0  0  0  0  0  0  0  0  0  0  0  0
   11.0537   51.0414   83.8653 C   0  0  0  0  0  0  0  0  0  0  0  0
   11.2606   49.8049   84.4908 C   0  0  0  0  0  0  0  0  0  0  0  0
   11.4545   49.7299   85.8737 C   0  0  0  0  0  0  0  0  0  0  0  0
   10.8489   51.1309   82.4203 C   0  0  0  0  0  0  0  0  0  0  0  0
    9.4098   51.8342   81.7931 S   0  0  0  0  0  0  0  0  0  0  0  0
    9.9988   51.5904   80.2051 C   0  0  0  0  0  0  0  0  0  0  0  0
   11.1757   51.0175   80.1025 N   0  0  0  0  0  0  0  0  0  0  0  0
   11.6746   50.7486   81.3705 C   0  0  0  0  0  0  0  0  0  0  0  0
   13.0059   50.0927   81.4723 C   0  0  0  0  0  0  0  0  0  0  0  0
   12.1040   54.1177   94.2133 C   0  0  0  0  0  0  0  0  0  0  0  0
   10.2438   56.9928   95.8770 C   0  0  0  0  0  0  0  0  0  0  0  0
   10.4031   55.7546   95.0371 C   0  0  0  0  0  0  0  0  0  0  0  0
    9.4408   55.1418   94.5938 O   0  0  0  0  0  0  0  0  0  0  0  0
   11.7157   55.4011   94.8199 N   0  0  0  0  0  0  0  0  0  0  0  0
   12.4240   56.0330   95.0812 H   0  0  0  0  0  0  0  0  0  0  0  0
   12.0177   52.9042   95.2089 C   0  0  0  0  0  0  0  0  0  0  0  0
   11.7669   53.4105   96.6483 C   0  0  0  0  0  0  0  0  0  0  0  0
   10.8063   52.0128   94.8394 C   0  0  0  0  0  0  0  0  0  0  0  0
   13.2716   52.0134   95.2103 C   0  0  0  0  0  0  0  0  0  0  0  0
 28 29  1  0
 29 30  2  0
 29 31  1  0
 27 31  1  0
 27  1  1  0
  1  2  2  0
  1  3  1  0
  3  4  1  0
  4  5  1  0
  5  6  1  0
  5  7  1  0
  7  8  1  0
  8 10  1  0
 10 11  2  0
 10 12  1  0
 12 14  1  0
 14 15  1  0
 15 16  2  0
 16 17  1  0
 17 18  2  0
 18 21  1  0
 21 22  1  0
 22 23  1  0
 23 24  2  0
 24 25  1  0
 25 26  1  0
 18 19  1  0
 19 20  2  0
 27 33  1  0
 33 34  1  0
 33 35  1  0
 33 36  1  0
  8  3  1  0
 20 15  1  0
 25 21  2  0
 31 32  1  0
  6  9  1  0
 12 13  1  0
M  END
> <minimizedAffinity>
-8.19502

> <CNNscore>
0.4718257189

> <CNNaffinity>
5.7123045921

> <CNN_VS>
2.6952121258

> <CNNaffinity_variance>
0.5896412134

$$$$



 36 38  0  0  0  0  0  0  0  0999 V2000
   11.6325   51.6081   91.2226 C   0  0  0  0  0  0  0  0  0  0  0  0
   12.4194   50.8370   90.6671 O   0  0  0  0  0  0  0  0  0  0  0  0
   10.7953   52.3930   90.4514 N   0  0  0  0  0  0  0  0  0  0  0  0
    9.8773   53.4394   90.8714 C   0  0  0  0  0  0  0  0  0  0  0  0
    9.3872   54.0865   89.5709 C   0  0  0  0  0  0  0  0  0  0  0  0
    8.0394   54.5201   89.6479 O   0  0  0  0  0  0  0  0  0  0  0  0
    9.5192   52.9499   88.5566 C   0  0  0  0  0  0  0  0  0  0  0  0
   10.8029   52.2555   89.0003 C   0  0  0  0  0  0  0  0  0  0  0  0
    7.4695   53.7669   89.8688 H   0  0  0  0  0  0  0  0  0  0  0  0
   12.0178   52.9797   88.3800 C   0  0  0  0  0  0  0  0  0  0  0  0
   12.7796   53.6906   89.0349 O   0  0  0  0  0  0  0  0  0  0  0  0
   12.1061   52.8428   87.0105 N   0  0  0  0  0  0  0  0  0  0  0  0
   11.5026   52.2135   86.5532 H   0  0  0  0  0  0  0  0  0  0  0  0
   13.0574   53.5951   86.2279 C   0  0  0  0  0  0  0  0  0  0  0  0
   13.3598   52.8723   84.9399 C   0  0  0  0  0  0  0  0  0  0  0  0
   14.5478   53.1382   84.2458 C   0  0  0  0  0  0  0  0  0  0  0  0
   14.8159   52.5084   83.0281 C   0  0  0  0  0  0  0  0  0  0  0  0
   13.8983   51.6062   82.4762 C   0  0  0  0  0  0  0  0  0  0  0  0
   12.7093   51.3418   83.1687 C   0  0  0  0  0  0  0  0  0  0  0  0
   12.4396   51.9724   84.3875 C   0  0  0  0  0  0  0  0  0  0  0  0
   14.1896   50.9532   81.2008 C   0  0  0  0  0  0  0  0  0  0  0  0
   15.5504   51.4435   80.2697 S   0  0  0  0  0  0  0  0  0  0  0  0
   15.1772   50.2375   79.1144 C   0  0  0  0  0  0  0  0  0  0  0  0
   14.1149   49.5060   79.3592 N   0  0  0  0  0  0  0  0  0  0  0  0
   13.5385   49.9085   80.5570 C   0  0  0  0  0  0  0  0  0  0  0  0
   12.3127   49.2007   81.0146 C   0  0  0  0  0  0  0  0  0  0  0  0
   11.6473   51.8496   92.7691 C   0  0  0  0  0  0  0  0  0  0  0  0
   13.0258   48.8214   94.6197 C   0  0  0  0  0  0  0  0  0  0  0  0
   12.9996   49.9096   93.5809 C   0  0  0  0  0  0  0  0  0  0  0  0
   13.9500   50.1235   92.8398 O   0  0  0  0  0  0  0  0  0  0  0  0
   11.8172   50.6138   93.5500 N   0  0  0  0  0  0  0  0  0  0  0  0
   11.0535   50.2768   94.0720 H   0  0  0  0  0  0  0  0  0  0  0  0
   12.5309   53.0424   93.2866 C   0  0  0  0  0  0  0  0  0  0  0  0
   13.6210   53.3907   92.2467 C   0  0  0  0  0  0  0  0  0  0  0  0
   11.6541   54.3092   93.4452 C   0  0  0  0  0  0  0  0  0  0  0  0
   13.2088   52.7696   94.6401 C   0  0  0  0  0  0  0  0  0  0  0  0
 28 29  1  0
 29 30  2  0
 29 31  1  0
 27 31  1  0
 27  1  1  0
  1  2  2  0
  1  3  1  0
  3  4  1  0
  4  5  1  0
  5  6  1  0
  5  7  1  0
  7  8  1  0
  8 10  1  0
 10 11  2  0
 10 12  1  0
 12 14  1  0
 14 15  1  0
 15 16  2  0
 16 17  1  0
 17 18  2  0
 18 21  1  0
 21 22  1  0
 22 23  1  0
 23 24  2  0
 24 25  1  0
 25 26  1  0
 18 19  1  0
 19 20  2  0
 27 33  1  0
 33 34  1  0
 33 35  1  0
 33 36  1  0
  8  3  1  0
 20 15  1  0
 25 21  2  0
 31 32  1  0
  6  9  1  0
 12 13  1  0
M  END
> <minimizedAffinity>
-8.44299

> <CNNscore>
0.4637661576

> <CNNaffinity>
5.9217987061

> <CNN_VS>
2.7463297844

> <CNNaffinity_variance>
0.4558601379

$$$$



 36 38  0  0  0  0  0  0  0  0999 V2000
    8.8072   52.8170   87.6461 C   0  0  0  0  0  0  0  0  0  0  0  0
    9.0410   53.8634   88.2567 O   0  0  0  0  0  0  0  0  0  0  0  0
    9.5934   51.7046   87.8831 N   0  0  0  0  0  0  0  0  0  0  0  0
    9.5792   50.4139   87.2136 C   0  0  0  0  0  0  0  0  0  0  0  0
   10.8015   49.6671   87.7600 C   0  0  0  0  0  0  0  0  0  0  0  0
   10.5826   48.2713   87.8810 O   0  0  0  0  0  0  0  0  0  0  0  0
   10.9911   50.2937   89.1419 C   0  0  0  0  0  0  0  0  0  0  0  0
   10.6421   51.7577   88.8940 C   0  0  0  0  0  0  0  0  0  0  0  0
    9.8210   48.1125   88.4605 H   0  0  0  0  0  0  0  0  0  0  0  0
   11.8887   52.4987   88.3627 C   0  0  0  0  0  0  0  0  0  0  0  0
   12.7298   53.0094   89.1018 O   0  0  0  0  0  0  0  0  0  0  0  0
   11.9151   52.6273   86.9898 N   0  0  0  0  0  0  0  0  0  0  0  0
   11.2457   52.1461   86.4518 H   0  0  0  0  0  0  0  0  0  0  0  0
   12.8955   53.4470   86.3187 C   0  0  0  0  0  0  0  0  0  0  0  0
   13.2487   52.8468   84.9815 C   0  0  0  0  0  0  0  0  0  0  0  0
   12.4632   51.8195   84.4416 C   0  0  0  0  0  0  0  0  0  0  0  0
   12.8084   51.2249   83.2256 C   0  0  0  0  0  0  0  0  0  0  0  0
   13.9498   51.6400   82.5291 C   0  0  0  0  0  0  0  0  0  0  0  0
   14.7367   52.6656   83.0696 C   0  0  0  0  0  0  0  0  0  0  0  0
   14.3925   53.2610   84.2872 C   0  0  0  0  0  0  0  0  0  0  0  0
   14.3013   51.0100   81.2572 C   0  0  0  0  0  0  0  0  0  0  0  0
   15.7216   51.4943   80.4162 S   0  0  0  0  0  0  0  0  0  0  0  0
   15.3930   50.3219   79.2138 C   0  0  0  0  0  0  0  0  0  0  0  0
   14.3053   49.6059   79.3811 N   0  0  0  0  0  0  0  0  0  0  0  0
   13.6691   49.9928   80.5534 C   0  0  0  0  0  0  0  0  0  0  0  0
   12.4066   49.2989   80.9244 C   0  0  0  0  0  0  0  0  0  0  0  0
    7.7494   52.7372   86.4951 C   0  0  0  0  0  0  0  0  0  0  0  0
    9.2185   51.4805   83.2153 C   0  0  0  0  0  0  0  0  0  0  0  0
    8.5849   52.4715   84.1536 C   0  0  0  0  0  0  0  0  0  0  0  0
    8.4369   53.6486   83.8526 O   0  0  0  0  0  0  0  0  0  0  0  0
    8.1917   51.9215   85.3528 N   0  0  0  0  0  0  0  0  0  0  0  0
    8.2072   50.9420   85.4503 H   0  0  0  0  0  0  0  0  0  0  0  0
    6.2628   52.4582   86.9238 C   0  0  0  0  0  0  0  0  0  0  0  0
    6.0988   50.9825   87.3555 C   0  0  0  0  0  0  0  0  0  0  0  0
    5.9072   53.3200   88.1606 C   0  0  0  0  0  0  0  0  0  0  0  0
    5.2324   52.7686   85.8248 C   0  0  0  0  0  0  0  0  0  0  0  0
 28 29  1  0
 29 30  2  0
 29 31  1  0
 27 31  1  0
 27  1  1  0
  1  2  2  0
  1  3  1  0
  3  4  1  0
  4  5  1  0
  5  6  1  0
  5  7  1  0
  7  8  1  0
  8 10  1  0
 10 11  2  0
 10 12  1  0
 12 14  1  0
 14 15  1  0
 15 16  2  0
 16 17  1  0
 17 18  2  0
 18 21  1  0
 21 22  1  0
 22 23  1  0
 23 24  2  0
 24 25  1  0
 25 26  1  0
 18 19  1  0
 19 20  2  0
 27 33  1  0
 33 34  1  0
 33 35  1  0
 33 36  1  0
  8  3  1  0
 20 15  1  0
 25 21  2  0
 31 32  1  0
  6  9  1  0
 12 13  1  0
M  END
> <minimizedAffinity>
-7.94699

> <CNNscore>
0.4143586159

> <CNNaffinity>
5.9049086571

> <CNN_VS>
2.4467496872

> <CNNaffinity_variance>
0.9690346122

$$$$



 36 38  0  0  0  0  0  0  0  0999 V2000
   12.3559   51.7871   83.7052 C   0  0  0  0  0  0  0  0  0  0  0  0
   12.5196   52.3131   84.8093 O   0  0  0  0  0  0  0  0  0  0  0  0
   11.1054   51.8232   83.1166 N   0  0  0  0  0  0  0  0  0  0  0  0
   10.6516   51.1859   81.8909 C   0  0  0  0  0  0  0  0  0  0  0  0
    9.1351   51.4090   81.8626 C   0  0  0  0  0  0  0  0  0  0  0  0
    8.6316   51.5888   80.5493 O   0  0  0  0  0  0  0  0  0  0  0  0
    8.9669   52.6945   82.6734 C   0  0  0  0  0  0  0  0  0  0  0  0
   10.0146   52.5353   83.7705 C   0  0  0  0  0  0  0  0  0  0  0  0
    9.0771   52.3431   80.1327 H   0  0  0  0  0  0  0  0  0  0  0  0
    9.4219   51.7017   84.9278 C   0  0  0  0  0  0  0  0  0  0  0  0
    8.6719   50.7430   84.7468 O   0  0  0  0  0  0  0  0  0  0  0  0
    9.7238   52.1960   86.1795 N   0  0  0  0  0  0  0  0  0  0  0  0
   10.3763   52.9289   86.2593 H   0  0  0  0  0  0  0  0  0  0  0  0
    9.1111   51.6701   87.3759 C   0  0  0  0  0  0  0  0  0  0  0  0
    8.1952   52.6996   87.9877 C   0  0  0  0  0  0  0  0  0  0  0  0
    6.8753   52.8256   87.5339 C   0  0  0  0  0  0  0  0  0  0  0  0
    6.0328   53.8070   88.0615 C   0  0  0  0  0  0  0  0  0  0  0  0
    6.4953   54.6868   89.0476 C   0  0  0  0  0  0  0  0  0  0  0  0
    7.8156   54.5627   89.5000 C   0  0  0  0  0  0  0  0  0  0  0  0
    8.6601   53.5811   88.9719 C   0  0  0  0  0  0  0  0  0  0  0  0
    5.6044   55.7104   89.5923 C   0  0  0  0  0  0  0  0  0  0  0  0
    4.1507   55.2547   90.3912 S   0  0  0  0  0  0  0  0  0  0  0  0
    3.8225   56.9044   90.7059 C   0  0  0  0  0  0  0  0  0  0  0  0
    4.7016   57.7690   90.2548 N   0  0  0  0  0  0  0  0  0  0  0  0
    5.7313   57.0936   89.6124 C   0  0  0  0  0  0  0  0  0  0  0  0
    6.8344   57.8996   89.0239 C   0  0  0  0  0  0  0  0  0  0  0  0
   13.4727   50.9420   83.0062 C   0  0  0  0  0  0  0  0  0  0  0  0
   12.6451   48.7918   79.9753 C   0  0  0  0  0  0  0  0  0  0  0  0
   13.0341   50.0432   80.7147 C   0  0  0  0  0  0  0  0  0  0  0  0
   13.3876   51.0594   80.1312 O   0  0  0  0  0  0  0  0  0  0  0  0
   12.9425   49.9258   82.0832 N   0  0  0  0  0  0  0  0  0  0  0  0
   12.5040   49.1289   82.4601 H   0  0  0  0  0  0  0  0  0  0  0  0
   14.6965   51.7381   82.4231 C   0  0  0  0  0  0  0  0  0  0  0  0
   15.2593   52.7083   83.4876 C   0  0  0  0  0  0  0  0  0  0  0  0
   15.8409   50.7536   82.0770 C   0  0  0  0  0  0  0  0  0  0  0  0
   14.3661   52.5380   81.1515 C   0  0  0  0  0  0  0  0  0  0  0  0
 28 29  1  0
 29 30  2  0
 29 31  1  0
 27 31  1  0
 27  1  1  0
  1  2  2  0
  1  3  1  0
  3  4  1  0
  4  5  1  0
  5  6  1  0
  5  7  1  0
  7  8  1  0
  8 10  1  0
 10 11  2  0
 10 12  1  0
 12 14  1  0
 14 15  1  0
 15 16  2  0
 16 17  1  0
 17 18  2  0
 18 21  1  0
 21 22  1  0
 22 23  1  0
 23 24  2  0
 24 25  1  0
 25 26  1  0
 18 19  1  0
 19 20  2  0
 27 33  1  0
 33 34  1  0
 33 35  1  0
 33 36  1  0
  8  3  1  0
 20 15  1  0
 25 21  2  0
 31 32  1  0
  6  9  1  0
 12 13  1  0
M  END
> <minimizedAffinity>
-7.13674

> <CNNscore>
0.3765920103

> <CNNaffinity>
5.6720829010

> <CNN_VS>
2.1360611916

> <CNNaffinity_variance>
0.4091037512

$$$$



 36 38  0  0  0  0  0  0  0  0999 V2000
   12.0434   49.6195   91.3866 C   0  0  0  0  0  0  0  0  0  0  0  0
   12.5645   50.3824   90.5686 O   0  0  0  0  0  0  0  0  0  0  0  0
   11.6372   48.3629   90.9774 N   0  0  0  0  0  0  0  0  0  0  0  0
   10.9101   47.3479   91.7226 C   0  0  0  0  0  0  0  0  0  0  0  0
   10.5669   46.2654   90.6927 C   0  0  0  0  0  0  0  0  0  0  0  0
   10.5849   44.9588   91.2434 O   0  0  0  0  0  0  0  0  0  0  0  0
   11.6819   46.4175   89.6574 C   0  0  0  0  0  0  0  0  0  0  0  0
   11.8867   47.9283   89.6086 C   0  0  0  0  0  0  0  0  0  0  0  0
   11.4599   44.7794   91.6216 H   0  0  0  0  0  0  0  0  0  0  0  0
   10.8654   48.5525   88.6327 C   0  0  0  0  0  0  0  0  0  0  0  0
    9.8150   47.9950   88.3158 O   0  0  0  0  0  0  0  0  0  0  0  0
   11.2887   49.7379   88.0691 N   0  0  0  0  0  0  0  0  0  0  0  0
   12.1101   50.1617   88.4081 H   0  0  0  0  0  0  0  0  0  0  0  0
   10.5625   50.3755   86.9969 C   0  0  0  0  0  0  0  0  0  0  0  0
   11.4489   50.5293   85.7870 C   0  0  0  0  0  0  0  0  0  0  0  0
   11.7901   51.8066   85.3224 C   0  0  0  0  0  0  0  0  0  0  0  0
   12.5723   51.9603   84.1753 C   0  0  0  0  0  0  0  0  0  0  0  0
   13.0223   50.8405   83.4655 C   0  0  0  0  0  0  0  0  0  0  0  0
   12.6794   49.5632   83.9283 C   0  0  0  0  0  0  0  0  0  0  0  0
   11.8958   49.4083   85.0762 C   0  0  0  0  0  0  0  0  0  0  0  0
   13.8402   51.0137   82.2659 C   0  0  0  0  0  0  0  0  0  0  0  0
   15.3987   51.7330   82.3788 S   0  0  0  0  0  0  0  0  0  0  0  0
   15.6137   51.4986   80.6974 C   0  0  0  0  0  0  0  0  0  0  0  0
   14.6149   50.9383   80.0555 N   0  0  0  0  0  0  0  0  0  0  0  0
   13.5889   50.6547   80.9476 C   0  0  0  0  0  0  0  0  0  0  0  0
   12.3564   50.0153   80.4138 C   0  0  0  0  0  0  0  0  0  0  0  0
   11.6806   50.0715   92.8406 C   0  0  0  0  0  0  0  0  0  0  0  0
   14.9147   49.6498   94.8047 C   0  0  0  0  0  0  0  0  0  0  0  0
   14.0564   49.8352   93.5828 C   0  0  0  0  0  0  0  0  0  0  0  0
   14.5364   50.0594   92.4794 O   0  0  0  0  0  0  0  0  0  0  0  0
   12.7079   49.7189   93.8336 N   0  0  0  0  0  0  0  0  0  0  0  0
   12.4187   49.3859   94.7139 H   0  0  0  0  0  0  0  0  0  0  0  0
   11.1277   51.5338   93.0056 C   0  0  0  0  0  0  0  0  0  0  0  0
   10.6946   51.7796   94.4696 C   0  0  0  0  0  0  0  0  0  0  0  0
   12.2537   52.5534   92.7034 C   0  0  0  0  0  0  0  0  0  0  0  0
    9.9428   51.8564   92.0794 C   0  0  0  0  0  0  0  0  0  0  0  0
 28 29  1  0
 29 30  2  0
 29 31  1  0
 27 31  1  0
 27  1  1  0
  1  2  2  0
  1  3  1  0
  3  4  1  0
  4  5  1  0
  5  6  1  0
  5  7  1  0
  7  8  1  0
  8 10  1  0
 10 11  2  0
 10 12  1  0
 12 14  1  0
 14 15  1  0
 15 16  2  0
 16 17  1  0
 17 18  2  0
 18 21  1  0
 21 22  1  0
 22 23  1  0
 23 24  2  0
 24 25  1  0
 25 26  1  0
 18 19  1  0
 19 20  2  0
 27 33  1  0
 33 34  1  0
 33 35  1  0
 33 36  1  0
  8  3  1  0
 20 15  1  0
 25 21  2  0
 31 32  1  0
  6  9  1  0
 12 13  1  0
M  END
> <minimizedAffinity>
-6.31185

> <CNNscore>
0.3749329746

> <CNNaffinity>
5.2189745903

> <CNN_VS>
1.9567656517

> <CNNaffinity_variance>
0.5272308588

$$$$



 36 38  0  0  0  0  0  0  0  0999 V2000
   11.5717   51.3679   91.0618 C   0  0  0  0  0  0  0  0  0  0  0  0
   12.3161   50.5782   90.4746 O   0  0  0  0  0  0  0  0  0  0  0  0
   10.7757   52.2243   90.3238 N   0  0  0  0  0  0  0  0  0  0  0  0
    9.9146   53.3008   90.7866 C   0  0  0  0  0  0  0  0  0  0  0  0
    9.4570   54.0215   89.5132 C   0  0  0  0  0  0  0  0  0  0  0  0
    8.1339   54.5220   89.6116 O   0  0  0  0  0  0  0  0  0  0  0  0
    9.5273   52.9188   88.4562 C   0  0  0  0  0  0  0  0  0  0  0  0
   10.7735   52.1418   88.8686 C   0  0  0  0  0  0  0  0  0  0  0  0
    7.5256   53.7919   89.8060 H   0  0  0  0  0  0  0  0  0  0  0  0
   12.0237   52.8242   88.2716 C   0  0  0  0  0  0  0  0  0  0  0  0
   12.8533   53.4203   88.9579 O   0  0  0  0  0  0  0  0  0  0  0  0
   12.0669   52.7960   86.8934 N   0  0  0  0  0  0  0  0  0  0  0  0
   11.4063   52.2530   86.4055 H   0  0  0  0  0  0  0  0  0  0  0  0
   13.0525   53.5393   86.1452 C   0  0  0  0  0  0  0  0  0  0  0  0
   13.3801   52.8227   84.8599 C   0  0  0  0  0  0  0  0  0  0  0  0
   14.5506   53.1382   84.1568 C   0  0  0  0  0  0  0  0  0  0  0  0
   14.8401   52.5134   82.9414 C   0  0  0  0  0  0  0  0  0  0  0  0
   13.9615   51.5666   82.4009 C   0  0  0  0  0  0  0  0  0  0  0  0
   12.7900   51.2525   83.1024 C   0  0  0  0  0  0  0  0  0  0  0  0
   12.4989   51.8780   84.3188 C   0  0  0  0  0  0  0  0  0  0  0  0
   14.2750   50.9193   81.1279 C   0  0  0  0  0  0  0  0  0  0  0  0
   15.6740   51.3859   80.2423 S   0  0  0  0  0  0  0  0  0  0  0  0
   15.3068   50.2006   79.0640 C   0  0  0  0  0  0  0  0  0  0  0  0
   14.2206   49.4923   79.2698 N   0  0  0  0  0  0  0  0  0  0  0  0
   13.6187   49.8969   80.4542 C   0  0  0  0  0  0  0  0  0  0  0  0
   12.3635   49.2141   80.8682 C   0  0  0  0  0  0  0  0  0  0  0  0
   11.6020   51.5494   92.6162 C   0  0  0  0  0  0  0  0  0  0  0  0
   12.7736   54.8832   94.0333 C   0  0  0  0  0  0  0  0  0  0  0  0
   12.6781   53.3852   93.9289 C   0  0  0  0  0  0  0  0  0  0  0  0
   13.3887   52.6410   94.5917 O   0  0  0  0  0  0  0  0  0  0  0  0
   11.7225   52.9547   93.0364 N   0  0  0  0  0  0  0  0  0  0  0  0
   11.0938   53.6142   92.6637 H   0  0  0  0  0  0  0  0  0  0  0  0
   10.5354   50.7401   93.4400 C   0  0  0  0  0  0  0  0  0  0  0  0
   11.2171   49.9956   94.6114 C   0  0  0  0  0  0  0  0  0  0  0  0
    9.5161   51.7182   94.0749 C   0  0  0  0  0  0  0  0  0  0  0  0
    9.7464   49.7214   92.6000 C   0  0  0  0  0  0  0  0  0  0  0  0
 28 29  1  0
 29 30  2  0
 29 31  1  0
 27 31  1  0
 27  1  1  0
  1  2  2  0
  1  3  1  0
  3  4  1  0
  4  5  1  0
  5  6  1  0
  5  7  1  0
  7  8  1  0
  8 10  1  0
 10 11  2  0
 10 12  1  0
 12 14  1  0
 14 15  1  0
 15 16  2  0
 16 17  1  0
 17 18  2  0
 18 21  1  0
 21 22  1  0
 22 23  1  0
 23 24  2  0
 24 25  1  0
 25 26  1  0
 18 19  1  0
 19 20  2  0
 27 33  1  0
 33 34  1  0
 33 35  1  0
 33 36  1  0
  8  3  1  0
 20 15  1  0
 25 21  2  0
 31 32  1  0
  6  9  1  0
 12 13  1  0
M  END
> <minimizedAffinity>
-8.07122

> <CNNscore>
0.3385745883

> <CNNaffinity>
5.9595017433

> <CNN_VS>
2.0177359581

> <CNNaffinity_variance>
0.3743351996

$$$$
