


 23 23  0  0  0  0  0  0  0  0999 V2000
   21.5494    4.4402   18.1152 C   0  0  0  0  0  0  0  0  0  0  0  0
   21.4347    4.3502   16.5763 C   0  0  0  0  0  0  0  0  0  0  0  0
   20.6344    3.1337   16.3171 N   0  0  0  0  0  0  0  0  0  0  0  0
   19.6117    3.1666   17.3776 C   0  0  0  0  0  0  0  0  0  0  0  0
   20.4390    3.4654   18.6607 C   0  0  0  0  0  0  0  0  0  0  0  0
   21.2103    2.2951   16.3911 H   0  0  0  0  0  0  0  0  0  0  0  0
   23.9459    5.1449   18.5293 C   0  0  0  0  0  0  0  0  0  0  0  0
   22.9530    4.2426   18.6662 C   0  0  0  0  0  0  0  0  0  0  0  0
   23.1894    2.9397   19.3893 C   0  0  0  0  0  0  0  0  0  0  0  0
   18.6980    1.9108   17.3920 C   0  0  0  0  0  0  0  0  0  0  0  0
   17.3352    1.9735   16.5514 N   0  0  0  0  0  0  0  0  0  0  0  0
   16.1593    1.8000   17.4961 C   0  0  0  0  0  0  0  0  0  0  0  0
   17.3465    0.8230   15.5470 C   0  0  0  0  0  0  0  0  0  0  0  0
   17.4226    3.3342   15.8726 C   0  0  0  0  0  0  0  0  0  0  0  0
   16.4200    3.7955   14.8324 N   0  0  0  0  0  0  0  0  0  0  0  0
   15.1153    4.3169   15.4380 C   0  0  0  0  0  0  0  0  0  0  0  0
   17.0799    5.0343   14.1451 C   0  0  0  0  0  0  0  0  0  0  0  0
   16.1198    2.8183   13.7117 C   0  0  0  0  0  0  0  0  0  0  0  0
   20.9885    2.2346   19.4063 C   0  0  0  0  0  0  0  0  0  0  0  0
   20.2633    1.9519   20.6965 C   0  0  0  0  0  0  0  0  0  0  0  0
   19.1858    1.3696   20.7733 O   0  0  0  0  0  0  0  0  0  0  0  0
   20.9128    2.4133   21.7721 O   0  0  0  0  0  0  0  0  0  0  0  0
   21.7340    2.8529   21.6707 H   0  0  0  0  0  0  0  0  0  0  0  0
  7  8  2  0
  8  9  1  0
  1  8  1  0
  1  2  1  0
  2  3  1  0
  3  4  1  0
  4 10  1  0
 10 11  1  0
 11 12  1  0
 11 13  1  0
 11 14  1  0
 14 15  1  0
 15 16  1  0
 15 17  1  0
 15 18  1  0
  4  5  1  0
  5 19  1  0
 19 20  1  0
 20 21  2  0
 20 22  1  0
  5  1  1  0
  3  6  1  0
 22 23  1  0
M  CHG 1  11   1
M  CHG 1  15   1
M  END
> <minimizedAffinity>
-4.92415

> <CNNscore>
0.3583379984

> <CNNaffinity>
4.9524879456

> <CNN_VS>
1.7746646404

> <CNNaffinity_variance>
1.3060363531

$$$$



 23 23  0  0  0  0  0  0  0  0999 V2000
   21.6866    5.9230   16.8990 C   0  0  0  0  0  0  0  0  0  0  0  0
   21.3291    6.0050   15.3974 C   0  0  0  0  0  0  0  0  0  0  0  0
   20.7766    4.6761   15.0566 N   0  0  0  0  0  0  0  0  0  0  0  0
   19.9703    4.3288   16.2403 C   0  0  0  0  0  0  0  0  0  0  0  0
   20.9236    4.6502   17.4270 C   0  0  0  0  0  0  0  0  0  0  0  0
   21.5232    3.9966   14.9112 H   0  0  0  0  0  0  0  0  0  0  0  0
   23.9633    4.9138   17.3570 C   0  0  0  0  0  0  0  0  0  0  0  0
   23.1736    5.9970   17.2091 C   0  0  0  0  0  0  0  0  0  0  0  0
   23.7378    7.3885   17.3571 C   0  0  0  0  0  0  0  0  0  0  0  0
   19.3647    2.9002   16.1760 C   0  0  0  0  0  0  0  0  0  0  0  0
   17.8911    2.7443   15.5662 N   0  0  0  0  0  0  0  0  0  0  0  0
   17.8636    1.5492   14.6303 C   0  0  0  0  0  0  0  0  0  0  0  0
   17.5715    4.0103   14.7738 C   0  0  0  0  0  0  0  0  0  0  0  0
   17.0256    2.6085   16.8122 C   0  0  0  0  0  0  0  0  0  0  0  0
   15.5128    2.5209   16.7521 N   0  0  0  0  0  0  0  0  0  0  0  0
   14.8757    3.6205   15.9001 C   0  0  0  0  0  0  0  0  0  0  0  0
   15.2070    1.1860   15.9991 C   0  0  0  0  0  0  0  0  0  0  0  0
   14.7946    2.4124   18.0839 C   0  0  0  0  0  0  0  0  0  0  0  0
   21.8455    3.5012   17.8769 C   0  0  0  0  0  0  0  0  0  0  0  0
   21.6610    3.1268   19.3247 C   0  0  0  0  0  0  0  0  0  0  0  0
   20.5980    3.2098   19.9325 O   0  0  0  0  0  0  0  0  0  0  0  0
   22.7899    2.6958   19.9003 O   0  0  0  0  0  0  0  0  0  0  0  0
   23.5813    2.6472   19.4011 H   0  0  0  0  0  0  0  0  0  0  0  0
  7  8  2  0
  8  9  1  0
  1  8  1  0
  1  2  1  0
  2  3  1  0
  3  4  1  0
  4 10  1  0
 10 11  1  0
 11 12  1  0
 11 13  1  0
 11 14  1  0
 14 15  1  0
 15 16  1  0
 15 17  1  0
 15 18  1  0
  4  5  1  0
  5 19  1  0
 19 20  1  0
 20 21  2  0
 20 22  1  0
  5  1  1  0
  3  6  1  0
 22 23  1  0
M  CHG 1  11   1
M  CHG 1  15   1
M  END
> <minimizedAffinity>
-5.23501

> <CNNscore>
0.2536467910

> <CNNaffinity>
4.4157814980

> <CNN_VS>
1.1200487614

> <CNNaffinity_variance>
0.7374172211

$$$$



 23 23  0  0  0  0  0  0  0  0999 V2000
   21.6691    6.0089   16.9033 C   0  0  0  0  0  0  0  0  0  0  0  0
   21.2815    5.9890   15.4070 C   0  0  0  0  0  0  0  0  0  0  0  0
   20.8689    4.5958   15.1313 N   0  0  0  0  0  0  0  0  0  0  0  0
   20.1228    4.2153   16.3438 C   0  0  0  0  0  0  0  0  0  0  0  0
   21.0545    4.6858   17.4973 C   0  0  0  0  0  0  0  0  0  0  0  0
   21.6815    3.9938   14.9986 H   0  0  0  0  0  0  0  0  0  0  0  0
   24.0298    5.2713   17.4458 C   0  0  0  0  0  0  0  0  0  0  0  0
   23.1443    6.2533   17.1805 C   0  0  0  0  0  0  0  0  0  0  0  0
   23.5799    7.6975   17.1521 C   0  0  0  0  0  0  0  0  0  0  0  0
   19.6723    2.7290   16.3493 C   0  0  0  0  0  0  0  0  0  0  0  0
   18.1198    2.4219   16.0979 N   0  0  0  0  0  0  0  0  0  0  0  0
   17.4608    2.0737   17.4207 C   0  0  0  0  0  0  0  0  0  0  0  0
   18.0219    1.2229   15.1570 C   0  0  0  0  0  0  0  0  0  0  0  0
   17.6249    3.7079   15.4488 C   0  0  0  0  0  0  0  0  0  0  0  0
   16.2965    3.7992   14.7228 N   0  0  0  0  0  0  0  0  0  0  0  0
   15.0977    3.9197   15.6659 C   0  0  0  0  0  0  0  0  0  0  0  0
   16.3455    5.1526   13.9428 C   0  0  0  0  0  0  0  0  0  0  0  0
   16.0305    2.7338   13.6762 C   0  0  0  0  0  0  0  0  0  0  0  0
   22.1009    3.6611   17.9748 C   0  0  0  0  0  0  0  0  0  0  0  0
   21.8675    3.1917   19.3875 C   0  0  0  0  0  0  0  0  0  0  0  0
   20.8023    3.2999   19.9873 O   0  0  0  0  0  0  0  0  0  0  0  0
   22.9554    2.6432   19.9416 O   0  0  0  0  0  0  0  0  0  0  0  0
   23.7502    2.5792   19.4494 H   0  0  0  0  0  0  0  0  0  0  0  0
  7  8  2  0
  8  9  1  0
  1  8  1  0
  1  2  1  0
  2  3  1  0
  3  4  1  0
  4 10  1  0
 10 11  1  0
 11 12  1  0
 11 13  1  0
 11 14  1  0
 14 15  1  0
 15 16  1  0
 15 17  1  0
 15 18  1  0
  4  5  1  0
  5 19  1  0
 19 20  1  0
 20 21  2  0
 20 22  1  0
  5  1  1  0
  3  6  1  0
 22 23  1  0
M  CHG 1  11   1
M  CHG 1  15   1
M  END
> <minimizedAffinity>
-4.99908

> <CNNscore>
0.2369522303

> <CNNaffinity>
4.5454974174

> <CNN_VS>
1.0770657063

> <CNNaffinity_variance>
0.5089827180

$$$$



 23 23  0  0  0  0  0  0  0  0999 V2000
   18.5763   -4.6524   20.9051 C   0  0  0  0  0  0  0  0  0  0  0  0
   19.8570   -4.2198   20.1553 C   0  0  0  0  0  0  0  0  0  0  0  0
   20.9267   -4.2291   21.1766 N   0  0  0  0  0  0  0  0  0  0  0  0
   20.6172   -5.4230   21.9831 C   0  0  0  0  0  0  0  0  0  0  0  0
   19.0913   -5.2845   22.2527 C   0  0  0  0  0  0  0  0  0  0  0  0
   20.8940   -3.3844   21.7474 H   0  0  0  0  0  0  0  0  0  0  0  0
   16.1852   -3.8269   21.0157 C   0  0  0  0  0  0  0  0  0  0  0  0
   17.5100   -3.5750   21.0274 C   0  0  0  0  0  0  0  0  0  0  0  0
   18.0254   -2.1630   21.1574 C   0  0  0  0  0  0  0  0  0  0  0  0
   21.5484   -5.5938   23.2142 C   0  0  0  0  0  0  0  0  0  0  0  0
   22.1466   -7.0532   23.4970 N   0  0  0  0  0  0  0  0  0  0  0  0
   23.6198   -6.9288   23.8428 C   0  0  0  0  0  0  0  0  0  0  0  0
   21.9983   -7.8797   22.2213 C   0  0  0  0  0  0  0  0  0  0  0  0
   21.2599   -7.5659   24.6243 C   0  0  0  0  0  0  0  0  0  0  0  0
   21.5615   -8.8418   25.3866 N   0  0  0  0  0  0  0  0  0  0  0  0
   22.6969   -9.6617   24.7706 C   0  0  0  0  0  0  0  0  0  0  0  0
   22.0982   -8.3735   26.7777 C   0  0  0  0  0  0  0  0  0  0  0  0
   20.3755   -9.7387   25.6872 C   0  0  0  0  0  0  0  0  0  0  0  0
   18.7024   -4.4897   23.5136 C   0  0  0  0  0  0  0  0  0  0  0  0
   18.2839   -5.3702   24.6625 C   0  0  0  0  0  0  0  0  0  0  0  0
   18.3336   -5.0399   25.8434 O   0  0  0  0  0  0  0  0  0  0  0  0
   17.8533   -6.5743   24.2673 O   0  0  0  0  0  0  0  0  0  0  0  0
   17.8307   -6.7876   23.3551 H   0  0  0  0  0  0  0  0  0  0  0  0
  7  8  2  0
  8  9  1  0
  1  8  1  0
  1  2  1  0
  2  3  1  0
  3  4  1  0
  4 10  1  0
 10 11  1  0
 11 12  1  0
 11 13  1  0
 11 14  1  0
 14 15  1  0
 15 16  1  0
 15 17  1  0
 15 18  1  0
  4  5  1  0
  5 19  1  0
 19 20  1  0
 20 21  2  0
 20 22  1  0
  5  1  1  0
  3  6  1  0
 22 23  1  0
M  CHG 1  11   1
M  CHG 1  15   1
M  END
> <minimizedAffinity>
-4.74591

> <CNNscore>
0.1728762686

> <CNNaffinity>
3.2993125916

> <CNN_VS>
0.5703728795

> <CNNaffinity_variance>
1.1205544472

$$$$



 23 23  0  0  0  0  0  0  0  0999 V2000
   18.5823   -4.6463   20.8808 C   0  0  0  0  0  0  0  0  0  0  0  0
   19.9855   -4.0138   20.7369 C   0  0  0  0  0  0  0  0  0  0  0  0
   20.7852   -4.5881   21.8406 N   0  0  0  0  0  0  0  0  0  0  0  0
   20.3415   -5.9925   21.8877 C   0  0  0  0  0  0  0  0  0  0  0  0
   18.7908   -5.8777   21.8406 C   0  0  0  0  0  0  0  0  0  0  0  0
   20.5868   -4.1127   22.7210 H   0  0  0  0  0  0  0  0  0  0  0  0
   16.1842   -4.0298   21.4104 C   0  0  0  0  0  0  0  0  0  0  0  0
   17.4762   -3.6736   21.2591 C   0  0  0  0  0  0  0  0  0  0  0  0
   17.9091   -2.2416   21.4538 C   0  0  0  0  0  0  0  0  0  0  0  0
   20.9639   -6.7966   23.0617 C   0  0  0  0  0  0  0  0  0  0  0  0
   21.6959   -8.1781   22.7108 N   0  0  0  0  0  0  0  0  0  0  0  0
   20.7576   -9.0439   21.8892 C   0  0  0  0  0  0  0  0  0  0  0  0
   22.0157   -8.8899   24.0237 C   0  0  0  0  0  0  0  0  0  0  0  0
   22.9517   -7.7163   21.9829 C   0  0  0  0  0  0  0  0  0  0  0  0
   24.2293   -7.3448   22.7107 N   0  0  0  0  0  0  0  0  0  0  0  0
   24.0040   -6.9682   24.1764 C   0  0  0  0  0  0  0  0  0  0  0  0
   25.0788   -8.6561   22.7474 C   0  0  0  0  0  0  0  0  0  0  0  0
   25.1073   -6.3080   22.0359 C   0  0  0  0  0  0  0  0  0  0  0  0
   18.0864   -5.7435   23.2039 C   0  0  0  0  0  0  0  0  0  0  0  0
   18.7230   -4.7127   24.0998 C   0  0  0  0  0  0  0  0  0  0  0  0
   19.8874   -4.7530   24.4854 O   0  0  0  0  0  0  0  0  0  0  0  0
   17.8798   -3.7343   24.4509 O   0  0  0  0  0  0  0  0  0  0  0  0
   16.9978   -3.7401   24.1347 H   0  0  0  0  0  0  0  0  0  0  0  0
  7  8  2  0
  8  9  1  0
  1  8  1  0
  1  2  1  0
  2  3  1  0
  3  4  1  0
  4 10  1  0
 10 11  1  0
 11 12  1  0
 11 13  1  0
 11 14  1  0
 14 15  1  0
 15 16  1  0
 15 17  1  0
 15 18  1  0
  4  5  1  0
  5 19  1  0
 19 20  1  0
 20 21  2  0
 20 22  1  0
  5  1  1  0
  3  6  1  0
 22 23  1  0
M  CHG 1  11   1
M  CHG 1  15   1
M  END
> <minimizedAffinity>
-4.54194

> <CNNscore>
0.1640543789

> <CNNaffinity>
3.4218158722

> <CNN_VS>
0.5613638759

> <CNNaffinity_variance>
1.4115395546

$$$$



 23 23  0  0  0  0  0  0  0  0999 V2000
   19.3101   -6.3004   22.7605 C   0  0  0  0  0  0  0  0  0  0  0  0
   20.0373   -5.1043   23.4162 C   0  0  0  0  0  0  0  0  0  0  0  0
   21.4714   -5.4658   23.4006 N   0  0  0  0  0  0  0  0  0  0  0  0
   21.6430   -6.1217   22.0922 C   0  0  0  0  0  0  0  0  0  0  0  0
   20.4454   -7.1127   22.0310 C   0  0  0  0  0  0  0  0  0  0  0  0
   21.6947   -6.1064   24.1623 H   0  0  0  0  0  0  0  0  0  0  0  0
   18.5517   -7.1176   25.0339 C   0  0  0  0  0  0  0  0  0  0  0  0
   18.4058   -7.0907   23.6934 C   0  0  0  0  0  0  0  0  0  0  0  0
   17.3069   -7.8764   23.0214 C   0  0  0  0  0  0  0  0  0  0  0  0
   23.0661   -6.7053   21.8772 C   0  0  0  0  0  0  0  0  0  0  0  0
   24.2498   -6.1348   22.7943 N   0  0  0  0  0  0  0  0  0  0  0  0
   25.5828   -6.5837   22.2226 C   0  0  0  0  0  0  0  0  0  0  0  0
   24.0833   -6.7168   24.1965 C   0  0  0  0  0  0  0  0  0  0  0  0
   24.0058   -4.6318   22.7596 C   0  0  0  0  0  0  0  0  0  0  0  0
   24.8644   -3.6820   21.9468 N   0  0  0  0  0  0  0  0  0  0  0  0
   24.8746   -4.0038   20.4511 C   0  0  0  0  0  0  0  0  0  0  0  0
   24.1638   -2.2900   22.0646 C   0  0  0  0  0  0  0  0  0  0  0  0
   26.2820   -3.4692   22.4432 C   0  0  0  0  0  0  0  0  0  0  0  0
   20.7018   -8.5119   22.6221 C   0  0  0  0  0  0  0  0  0  0  0  0
   20.7127   -9.6011   21.5810 C   0  0  0  0  0  0  0  0  0  0  0  0
   21.6966   -9.9185   20.9196 O   0  0  0  0  0  0  0  0  0  0  0  0
   19.5225  -10.1957   21.4352 O   0  0  0  0  0  0  0  0  0  0  0  0
   18.7956   -9.9238   21.9601 H   0  0  0  0  0  0  0  0  0  0  0  0
  7  8  2  0
  8  9  1  0
  1  8  1  0
  1  2  1  0
  2  3  1  0
  3  4  1  0
  4 10  1  0
 10 11  1  0
 11 12  1  0
 11 13  1  0
 11 14  1  0
 14 15  1  0
 15 16  1  0
 15 17  1  0
 15 18  1  0
  4  5  1  0
  5 19  1  0
 19 20  1  0
 20 21  2  0
 20 22  1  0
  5  1  1  0
  3  6  1  0
 22 23  1  0
M  CHG 1  11   1
M  CHG 1  15   1
M  END
> <minimizedAffinity>
-4.23922

> <CNNscore>
0.1515733600

> <CNNaffinity>
3.1444435120

> <CNN_VS>
0.4766138792

> <CNNaffinity_variance>
1.2545162439

$$$$



 23 23  0  0  0  0  0  0  0  0999 V2000
   21.4296    3.7566   18.7458 C   0  0  0  0  0  0  0  0  0  0  0  0
   22.0344    4.0064   17.3453 C   0  0  0  0  0  0  0  0  0  0  0  0
   21.2461    3.1583   16.4251 N   0  0  0  0  0  0  0  0  0  0  0  0
   19.8705    3.2869   16.9376 C   0  0  0  0  0  0  0  0  0  0  0  0
   20.0394    3.0699   18.4688 C   0  0  0  0  0  0  0  0  0  0  0  0
   21.5606    2.1887   16.4625 H   0  0  0  0  0  0  0  0  0  0  0  0
   23.6606    2.8207   19.4928 C   0  0  0  0  0  0  0  0  0  0  0  0
   22.3514    3.0466   19.7250 C   0  0  0  0  0  0  0  0  0  0  0  0
   21.7047    2.5842   21.0073 C   0  0  0  0  0  0  0  0  0  0  0  0
   18.8491    2.3826   16.1954 C   0  0  0  0  0  0  0  0  0  0  0  0
   17.8233    3.0910   15.1885 N   0  0  0  0  0  0  0  0  0  0  0  0
   18.4150    4.4086   14.7206 C   0  0  0  0  0  0  0  0  0  0  0  0
   16.5275    3.3644   15.9495 C   0  0  0  0  0  0  0  0  0  0  0  0
   17.6436    2.0411   14.0998 C   0  0  0  0  0  0  0  0  0  0  0  0
   16.4431    1.1159   14.0454 N   0  0  0  0  0  0  0  0  0  0  0  0
   15.5983    1.2934   12.7823 C   0  0  0  0  0  0  0  0  0  0  0  0
   17.0382   -0.3257   13.9448 C   0  0  0  0  0  0  0  0  0  0  0  0
   15.5501    1.1046   15.2716 C   0  0  0  0  0  0  0  0  0  0  0  0
   19.9468    1.6108   18.9537 C   0  0  0  0  0  0  0  0  0  0  0  0
   18.6219    1.2823   19.5919 C   0  0  0  0  0  0  0  0  0  0  0  0
   17.5418    1.3286   19.0110 O   0  0  0  0  0  0  0  0  0  0  0  0
   18.7344    0.9378   20.8803 O   0  0  0  0  0  0  0  0  0  0  0  0
   19.5782    0.9147   21.2871 H   0  0  0  0  0  0  0  0  0  0  0  0
  7  8  2  0
  8  9  1  0
  1  8  1  0
  1  2  1  0
  2  3  1  0
  3  4  1  0
  4 10  1  0
 10 11  1  0
 11 12  1  0
 11 13  1  0
 11 14  1  0
 14 15  1  0
 15 16  1  0
 15 17  1  0
 15 18  1  0
  4  5  1  0
  5 19  1  0
 19 20  1  0
 20 21  2  0
 20 22  1  0
  5  1  1  0
  3  6  1  0
 22 23  1  0
M  CHG 1  11   1
M  CHG 1  15   1
M  END
> <minimizedAffinity>
-5.41574

> <CNNscore>
0.1403965950

> <CNNaffinity>
4.6596488953

> <CNN_VS>
0.6541988254

> <CNNaffinity_variance>
0.6341896653

$$$$



 23 23  0  0  0  0  0  0  0  0999 V2000
   18.9798   -4.6970   20.9232 C   0  0  0  0  0  0  0  0  0  0  0  0
   20.0509   -3.9532   20.0931 C   0  0  0  0  0  0  0  0  0  0  0  0
   21.1958   -3.7701   21.0113 N   0  0  0  0  0  0  0  0  0  0  0  0
   21.2395   -5.0396   21.7583 C   0  0  0  0  0  0  0  0  0  0  0  0
   19.7563   -5.2601   22.1726 C   0  0  0  0  0  0  0  0  0  0  0  0
   21.0378   -2.9821   21.6394 H   0  0  0  0  0  0  0  0  0  0  0  0
   16.5361   -4.4484   21.5378 C   0  0  0  0  0  0  0  0  0  0  0  0
   17.7220   -3.8934   21.2144 C   0  0  0  0  0  0  0  0  0  0  0  0
   17.8696   -2.3955   21.1107 C   0  0  0  0  0  0  0  0  0  0  0  0
   22.3069   -5.0547   22.8863 C   0  0  0  0  0  0  0  0  0  0  0  0
   23.7140   -5.7526   22.5688 N   0  0  0  0  0  0  0  0  0  0  0  0
   23.5024   -6.8591   21.5510 C   0  0  0  0  0  0  0  0  0  0  0  0
   24.2441   -6.3586   23.8667 C   0  0  0  0  0  0  0  0  0  0  0  0
   24.5653   -4.5855   22.0860 C   0  0  0  0  0  0  0  0  0  0  0  0
   25.2018   -3.5890   23.0357 N   0  0  0  0  0  0  0  0  0  0  0  0
   24.2322   -3.0536   24.0912 C   0  0  0  0  0  0  0  0  0  0  0  0
   26.2705   -4.4043   23.8328 C   0  0  0  0  0  0  0  0  0  0  0  0
   25.9584   -2.4414   22.3941 C   0  0  0  0  0  0  0  0  0  0  0  0
   19.3344   -4.6330   23.5148 C   0  0  0  0  0  0  0  0  0  0  0  0
   18.9715   -5.6575   24.5584 C   0  0  0  0  0  0  0  0  0  0  0  0
   17.9543   -6.3436   24.5326 O   0  0  0  0  0  0  0  0  0  0  0  0
   19.8759   -5.7443   25.5413 O   0  0  0  0  0  0  0  0  0  0  0  0
   20.6400   -5.2022   25.5240 H   0  0  0  0  0  0  0  0  0  0  0  0
  7  8  2  0
  8  9  1  0
  1  8  1  0
  1  2  1  0
  2  3  1  0
  3  4  1  0
  4 10  1  0
 10 11  1  0
 11 12  1  0
 11 13  1  0
 11 14  1  0
 14 15  1  0
 15 16  1  0
 15 17  1  0
 15 18  1  0
  4  5  1  0
  5 19  1  0
 19 20  1  0
 20 21  2  0
 20 22  1  0
  5  1  1  0
  3  6  1  0
 22 23  1  0
M  CHG 1  11   1
M  CHG 1  15   1
M  END
> <minimizedAffinity>
-4.63434

> <CNNscore>
0.1172762662

> <CNNaffinity>
3.2680804729

> <CNN_VS>
0.3832682669

> <CNNaffinity_variance>
1.2144824266

$$$$



 23 23  0  0  0  0  0  0  0  0999 V2000
   20.7958    7.0971   16.0973 C   0  0  0  0  0  0  0  0  0  0  0  0
   20.5068    7.7240   14.7142 C   0  0  0  0  0  0  0  0  0  0  0  0
   20.1849    6.5827   13.8303 N   0  0  0  0  0  0  0  0  0  0  0  0
   19.3829    5.6984   14.6943 C   0  0  0  0  0  0  0  0  0  0  0  0
   20.2132    5.6364   16.0084 C   0  0  0  0  0  0  0  0  0  0  0  0
   21.0342    6.1136   13.5157 H   0  0  0  0  0  0  0  0  0  0  0  0
   22.9440    6.2030   17.0960 C   0  0  0  0  0  0  0  0  0  0  0  0
   22.2357    7.2232   16.5704 C   0  0  0  0  0  0  0  0  0  0  0  0
   22.8490    8.5941   16.4260 C   0  0  0  0  0  0  0  0  0  0  0  0
   19.0099    4.3502   14.0196 C   0  0  0  0  0  0  0  0  0  0  0  0
   17.4842    3.8694   14.1128 N   0  0  0  0  0  0  0  0  0  0  0  0
   17.1536    3.0237   12.8960 C   0  0  0  0  0  0  0  0  0  0  0  0
   16.5967    5.1125   14.1165 C   0  0  0  0  0  0  0  0  0  0  0  0
   17.4471    3.1288   15.4432 C   0  0  0  0  0  0  0  0  0  0  0  0
   16.1910    2.4671   15.9765 N   0  0  0  0  0  0  0  0  0  0  0  0
   15.8321    1.1715   15.2461 C   0  0  0  0  0  0  0  0  0  0  0  0
   16.5416    2.0341   17.4366 C   0  0  0  0  0  0  0  0  0  0  0  0
   14.9659    3.3537   16.0963 C   0  0  0  0  0  0  0  0  0  0  0  0
   21.2778    4.5253   16.0774 C   0  0  0  0  0  0  0  0  0  0  0  0
   20.9421    3.4451   17.0728 C   0  0  0  0  0  0  0  0  0  0  0  0
   21.0880    3.5510   18.2868 O   0  0  0  0  0  0  0  0  0  0  0  0
   20.4694    2.3333   16.4968 O   0  0  0  0  0  0  0  0  0  0  0  0
   20.3730    2.2927   15.5657 H   0  0  0  0  0  0  0  0  0  0  0  0
  7  8  2  0
  8  9  1  0
  1  8  1  0
  1  2  1  0
  2  3  1  0
  3  4  1  0
  4 10  1  0
 10 11  1  0
 11 12  1  0
 11 13  1  0
 11 14  1  0
 14 15  1  0
 15 16  1  0
 15 17  1  0
 15 18  1  0
  4  5  1  0
  5 19  1  0
 19 20  1  0
 20 21  2  0
 20 22  1  0
  5  1  1  0
  3  6  1  0
 22 23  1  0
M  CHG 1  11   1
M  CHG 1  15   1
M  END
> <minimizedAffinity>
-5.60759

> <CNNscore>
0.1172020361

> <CNNaffinity>
4.4453215599

> <CNN_VS>
0.5210007429

> <CNNaffinity_variance>
0.7908895612

$$$$
