


 25 27  0  0  0  0  0  0  0  0999 V2000
   56.2773   39.2887   19.2221 C   0  0  0  0  0  0  0  0  0  0  0  0
   56.1693   39.1043   17.8897 N   0  0  0  0  0  0  0  0  0  0  0  0
   54.9189   39.5301   17.6128 N   0  0  0  0  0  0  0  0  0  0  0  0
   54.2303   39.9786   18.6985 C   0  0  0  0  0  0  0  0  0  0  0  0
   52.9602   40.4854   18.8831 C   0  0  0  0  0  0  0  0  0  0  0  0
   52.0503   40.7040   17.8623 N   0  0  0  0  0  0  0  0  0  0  0  0
   52.5942   40.7884   20.1397 N   0  0  0  0  0  0  0  0  0  0  0  0
   53.4842   40.5908   21.1342 C   0  0  0  0  0  0  0  0  0  0  0  0
   54.7369   40.1165   21.0403 N   0  0  0  0  0  0  0  0  0  0  0  0
   55.0832   39.8135   19.7719 C   0  0  0  0  0  0  0  0  0  0  0  0
   54.5380   39.5175   16.7050 H   0  0  0  0  0  0  0  0  0  0  0  0
   52.2930   40.4906   16.9324 H   0  0  0  0  0  0  0  0  0  0  0  0
   51.1606   41.0728   18.0666 H   0  0  0  0  0  0  0  0  0  0  0  0
   57.8620   39.9533   21.0802 C   0  0  0  0  0  0  0  0  0  0  0  0
   57.0741   39.3636   22.2480 C   0  0  0  0  0  0  0  0  0  0  0  0
   57.4701   39.8385   23.5278 O   0  0  0  0  0  0  0  0  0  0  0  0
   57.3145   37.8673   22.0515 C   0  0  0  0  0  0  0  0  0  0  0  0
   57.4028   37.6410   20.6289 O   0  0  0  0  0  0  0  0  0  0  0  0
   57.5293   38.9347   19.9762 C   0  0  0  0  0  0  0  0  0  0  0  0
   58.4099   39.6439   23.6683 H   0  0  0  0  0  0  0  0  0  0  0  0
   56.2003   36.9862   22.6159 C   0  0  0  0  0  0  0  0  0  0  0  0
   56.5933   35.6154   22.6810 O   0  0  0  0  0  0  0  0  0  0  0  0
   56.7950   35.2941   21.7883 H   0  0  0  0  0  0  0  0  0  0  0  0
   59.7848   38.5959   21.4651 C   0  0  0  0  0  0  0  0  0  0  0  0
   59.2850   39.9176   21.3091 O   0  0  0  0  0  0  0  0  0  0  0  0
 24 25  1  0
 14 25  1  0
 14 15  1  0
 15 16  1  0
 15 17  1  0
 17 21  1  0
 21 22  1  0
 17 18  1  0
 18 19  1  0
 19  1  1  0
  1  2  2  0
  2  3  1  0
  3  4  1  0
  4  5  2  0
  5  6  1  0
  5  7  1  0
  7  8  2  0
  8  9  1  0
  9 10  2  0
 19 14  1  0
 10  1  1  0
 10  4  1  0
 16 20  1  0
 22 23  1  0
  3 11  1  0
  6 12  1  0
  6 13  1  0
M  END
> <minimizedAffinity>
-8.95797

> <CNNscore>
0.9026846886

> <CNNaffinity>
6.9998068810

> <CNN_VS>
6.3186182976

> <CNNaffinity_variance>
0.2107991725

$$$$



 25 27  0  0  0  0  0  0  0  0999 V2000
   55.5623   39.1091   20.5979 C   0  0  0  0  0  0  0  0  0  0  0  0
   55.9775   38.6633   19.3939 N   0  0  0  0  0  0  0  0  0  0  0  0
   55.1361   39.2653   18.5273 N   0  0  0  0  0  0  0  0  0  0  0  0
   54.2123   40.0725   19.1181 C   0  0  0  0  0  0  0  0  0  0  0  0
   53.1826   40.8572   18.6405 C   0  0  0  0  0  0  0  0  0  0  0  0
   52.8890   41.0286   17.2980 N   0  0  0  0  0  0  0  0  0  0  0  0
   52.4240   41.4969   19.5461 N   0  0  0  0  0  0  0  0  0  0  0  0
   52.7173   41.3438   20.8540 C   0  0  0  0  0  0  0  0  0  0  0  0
   53.7030   40.6136   21.4002 N   0  0  0  0  0  0  0  0  0  0  0  0
   54.4496   39.9754   20.4750 C   0  0  0  0  0  0  0  0  0  0  0  0
   55.1858   39.1325   17.5531 H   0  0  0  0  0  0  0  0  0  0  0  0
   53.4292   40.5713   16.6137 H   0  0  0  0  0  0  0  0  0  0  0  0
   52.1401   41.6078   17.0280 H   0  0  0  0  0  0  0  0  0  0  0  0
   56.9401   37.3240   21.7471 C   0  0  0  0  0  0  0  0  0  0  0  0
   58.3164   37.7817   21.2688 C   0  0  0  0  0  0  0  0  0  0  0  0
   59.3467   36.8146   21.4212 O   0  0  0  0  0  0  0  0  0  0  0  0
   58.5289   39.0377   22.1131 C   0  0  0  0  0  0  0  0  0  0  0  0
   57.2315   39.6419   22.2980 O   0  0  0  0  0  0  0  0  0  0  0  0
   56.2247   38.6798   21.8779 C   0  0  0  0  0  0  0  0  0  0  0  0
   59.4194   36.5640   22.3554 H   0  0  0  0  0  0  0  0  0  0  0  0
   59.4560   40.0651   21.4642 C   0  0  0  0  0  0  0  0  0  0  0  0
   60.5239   39.4383   20.7540 O   0  0  0  0  0  0  0  0  0  0  0  0
   61.0574   38.9124   21.3703 H   0  0  0  0  0  0  0  0  0  0  0  0
   55.7988   36.0151   23.3817 C   0  0  0  0  0  0  0  0  0  0  0  0
   56.9911   36.7163   23.0534 O   0  0  0  0  0  0  0  0  0  0  0  0
 24 25  1  0
 14 25  1  0
 14 15  1  0
 15 16  1  0
 15 17  1  0
 17 21  1  0
 21 22  1  0
 17 18  1  0
 18 19  1  0
 19  1  1  0
  1  2  2  0
  2  3  1  0
  3  4  1  0
  4  5  2  0
  5  6  1  0
  5  7  1  0
  7  8  2  0
  8  9  1  0
  9 10  2  0
 19 14  1  0
 10  1  1  0
 10  4  1  0
 16 20  1  0
 22 23  1  0
  3 11  1  0
  6 12  1  0
  6 13  1  0
M  END
> <minimizedAffinity>
-6.92457

> <CNNscore>
0.8174649477

> <CNNaffinity>
6.3775424957

> <CNN_VS>
5.2134175301

> <CNNaffinity_variance>
0.0570381470

$$$$



 25 27  0  0  0  0  0  0  0  0999 V2000
   56.4031   39.6492   20.2633 C   0  0  0  0  0  0  0  0  0  0  0  0
   56.7813   39.2824   19.0210 N   0  0  0  0  0  0  0  0  0  0  0  0
   55.6760   39.4994   18.2777 N   0  0  0  0  0  0  0  0  0  0  0  0
   54.6185   39.9884   18.9825 C   0  0  0  0  0  0  0  0  0  0  0  0
   53.3273   40.3419   18.6477 C   0  0  0  0  0  0  0  0  0  0  0  0
   52.8157   40.3047   17.3614 N   0  0  0  0  0  0  0  0  0  0  0  0
   52.5232   40.7526   19.6424 N   0  0  0  0  0  0  0  0  0  0  0  0
   53.0236   40.8043   20.8943 C   0  0  0  0  0  0  0  0  0  0  0  0
   54.2643   40.4922   21.3021 N   0  0  0  0  0  0  0  0  0  0  0  0
   55.0541   40.0773   20.2898 C   0  0  0  0  0  0  0  0  0  0  0  0
   55.6376   39.3199   17.3105 H   0  0  0  0  0  0  0  0  0  0  0  0
   53.3837   40.0077   16.6141 H   0  0  0  0  0  0  0  0  0  0  0  0
   51.8840   40.5755   17.1942 H   0  0  0  0  0  0  0  0  0  0  0  0
   56.9499   38.4474   22.4225 C   0  0  0  0  0  0  0  0  0  0  0  0
   57.7114   37.2691   21.8190 C   0  0  0  0  0  0  0  0  0  0  0  0
   57.8884   36.1670   22.6989 O   0  0  0  0  0  0  0  0  0  0  0  0
   59.0227   37.9355   21.4046 C   0  0  0  0  0  0  0  0  0  0  0  0
   58.6993   39.2851   21.0086 O   0  0  0  0  0  0  0  0  0  0  0  0
   57.3380   39.5643   21.4382 C   0  0  0  0  0  0  0  0  0  0  0  0
   58.3638   36.4596   23.4922 H   0  0  0  0  0  0  0  0  0  0  0  0
   59.7234   37.2408   20.2373 C   0  0  0  0  0  0  0  0  0  0  0  0
   61.1322   37.4706   20.2549 O   0  0  0  0  0  0  0  0  0  0  0  0
   61.3056   38.4216   20.1748 H   0  0  0  0  0  0  0  0  0  0  0  0
   58.5799   38.0414   24.1154 C   0  0  0  0  0  0  0  0  0  0  0  0
   57.4467   38.8071   23.7272 O   0  0  0  0  0  0  0  0  0  0  0  0
 24 25  1  0
 14 25  1  0
 14 15  1  0
 15 16  1  0
 15 17  1  0
 17 21  1  0
 21 22  1  0
 17 18  1  0
 18 19  1  0
 19  1  1  0
  1  2  2  0
  2  3  1  0
  3  4  1  0
  4  5  2  0
  5  6  1  0
  5  7  1  0
  7  8  2  0
  8  9  1  0
  9 10  2  0
 19 14  1  0
 10  1  1  0
 10  4  1  0
 16 20  1  0
 22 23  1  0
  3 11  1  0
  6 12  1  0
  6 13  1  0
M  END
> <minimizedAffinity>
-6.81458

> <CNNscore>
0.7301506400

> <CNNaffinity>
6.8580269814

> <CNN_VS>
5.0073928833

> <CNNaffinity_variance>
0.3083795905

$$$$



 25 27  0  0  0  0  0  0  0  0999 V2000
   60.6821   37.8781   21.4535 C   0  0  0  0  0  0  0  0  0  0  0  0
   60.9981   38.9291   22.2386 N   0  0  0  0  0  0  0  0  0  0  0  0
   62.3431   38.9958   22.1501 N   0  0  0  0  0  0  0  0  0  0  0  0
   62.8959   38.0453   21.3471 C   0  0  0  0  0  0  0  0  0  0  0  0
   64.1900   37.7389   20.9788 C   0  0  0  0  0  0  0  0  0  0  0  0
   65.3052   38.4612   21.3692 N   0  0  0  0  0  0  0  0  0  0  0  0
   64.3682   36.6702   20.1845 N   0  0  0  0  0  0  0  0  0  0  0  0
   63.2821   35.9737   19.7901 C   0  0  0  0  0  0  0  0  0  0  0  0
   61.9948   36.2098   20.0906 N   0  0  0  0  0  0  0  0  0  0  0  0
   61.8377   37.2833   20.8928 C   0  0  0  0  0  0  0  0  0  0  0  0
   62.8779   39.6726   22.6247 H   0  0  0  0  0  0  0  0  0  0  0  0
   65.2027   39.2487   21.9511 H   0  0  0  0  0  0  0  0  0  0  0  0
   66.2005   38.1872   21.0649 H   0  0  0  0  0  0  0  0  0  0  0  0
   58.5471   37.1359   22.5921 C   0  0  0  0  0  0  0  0  0  0  0  0
   57.9912   38.5206   22.9175 C   0  0  0  0  0  0  0  0  0  0  0  0
   56.9486   38.5268   23.8835 O   0  0  0  0  0  0  0  0  0  0  0  0
   57.5462   39.0011   21.5367 C   0  0  0  0  0  0  0  0  0  0  0  0
   58.4733   38.4442   20.5811 O   0  0  0  0  0  0  0  0  0  0  0  0
   59.2605   37.4272   21.2605 C   0  0  0  0  0  0  0  0  0  0  0  0
   56.2160   37.9726   23.5721 H   0  0  0  0  0  0  0  0  0  0  0  0
   57.5467   40.5221   21.3853 C   0  0  0  0  0  0  0  0  0  0  0  0
   58.4024   41.1475   22.3415 O   0  0  0  0  0  0  0  0  0  0  0  0
   58.0901   40.9437   23.2370 H   0  0  0  0  0  0  0  0  0  0  0  0
   56.2559   36.7837   22.0315 C   0  0  0  0  0  0  0  0  0  0  0  0
   57.5028   36.1744   22.3402 O   0  0  0  0  0  0  0  0  0  0  0  0
 24 25  1  0
 14 25  1  0
 14 15  1  0
 15 16  1  0
 15 17  1  0
 17 21  1  0
 21 22  1  0
 17 18  1  0
 18 19  1  0
 19  1  1  0
  1  2  2  0
  2  3  1  0
  3  4  1  0
  4  5  2  0
  5  6  1  0
  5  7  1  0
  7  8  2  0
  8  9  1  0
  9 10  2  0
 19 14  1  0
 10  1  1  0
 10  4  1  0
 16 20  1  0
 22 23  1  0
  3 11  1  0
  6 12  1  0
  6 13  1  0
M  END
> <minimizedAffinity>
-6.44920

> <CNNscore>
0.2169108540

> <CNNaffinity>
5.0780043602

> <CNN_VS>
1.1014742851

> <CNNaffinity_variance>
0.1255931556

$$$$



 25 27  0  0  0  0  0  0  0  0999 V2000
   56.7884   39.3016   20.9483 C   0  0  0  0  0  0  0  0  0  0  0  0
   56.2463   40.0062   21.9634 N   0  0  0  0  0  0  0  0  0  0  0  0
   55.1318   40.5376   21.4187 N   0  0  0  0  0  0  0  0  0  0  0  0
   54.9365   40.2035   20.1132 C   0  0  0  0  0  0  0  0  0  0  0  0
   53.9661   40.5118   19.1818 C   0  0  0  0  0  0  0  0  0  0  0  0
   52.8431   41.2772   19.4478 N   0  0  0  0  0  0  0  0  0  0  0  0
   54.1287   40.0280   17.9391 N   0  0  0  0  0  0  0  0  0  0  0  0
   55.2141   39.2693   17.6812 C   0  0  0  0  0  0  0  0  0  0  0  0
   56.1938   38.9132   18.5276 N   0  0  0  0  0  0  0  0  0  0  0  0
   56.0149   39.4130   19.7681 C   0  0  0  0  0  0  0  0  0  0  0  0
   54.5139   41.1163   21.9213 H   0  0  0  0  0  0  0  0  0  0  0  0
   52.6997   41.6438   20.3501 H   0  0  0  0  0  0  0  0  0  0  0  0
   52.1881   41.4546   18.7345 H   0  0  0  0  0  0  0  0  0  0  0  0
   58.7765   38.8325   22.4425 C   0  0  0  0  0  0  0  0  0  0  0  0
   58.1209   37.7855   23.3406 C   0  0  0  0  0  0  0  0  0  0  0  0
   58.8207   37.5219   24.5493 O   0  0  0  0  0  0  0  0  0  0  0  0
   58.0502   36.5818   22.4017 C   0  0  0  0  0  0  0  0  0  0  0  0
   57.8372   37.1004   21.0719 O   0  0  0  0  0  0  0  0  0  0  0  0
   58.0726   38.5353   21.1072 C   0  0  0  0  0  0  0  0  0  0  0  0
   59.7202   37.2229   24.3434 H   0  0  0  0  0  0  0  0  0  0  0  0
   56.9175   35.6100   22.7320 C   0  0  0  0  0  0  0  0  0  0  0  0
   56.0019   36.1674   23.6747 O   0  0  0  0  0  0  0  0  0  0  0  0
   56.4688   36.3630   24.5021 H   0  0  0  0  0  0  0  0  0  0  0  0
   60.6222   38.8138   20.9324 C   0  0  0  0  0  0  0  0  0  0  0  0
   60.1877   38.5945   22.2681 O   0  0  0  0  0  0  0  0  0  0  0  0
 24 25  1  0
 14 25  1  0
 14 15  1  0
 15 16  1  0
 15 17  1  0
 17 21  1  0
 21 22  1  0
 17 18  1  0
 18 19  1  0
 19  1  1  0
  1  2  2  0
  2  3  1  0
  3  4  1  0
  4  5  2  0
  5  6  1  0
  5  7  1  0
  7  8  2  0
  8  9  1  0
  9 10  2  0
 19 14  1  0
 10  1  1  0
 10  4  1  0
 16 20  1  0
 22 23  1  0
  3 11  1  0
  6 12  1  0
  6 13  1  0
M  END
> <minimizedAffinity>
-5.28571

> <CNNscore>
0.1874156296

> <CNNaffinity>
5.2120614052

> <CNN_VS>
0.9768217802

> <CNNaffinity_variance>
0.6081337333

$$$$



 25 27  0  0  0  0  0  0  0  0999 V2000
   61.3434   32.2694   28.6386 C   0  0  0  0  0  0  0  0  0  0  0  0
   62.0075   32.8505   27.6177 N   0  0  0  0  0  0  0  0  0  0  0  0
   63.0963   33.3823   28.2119 N   0  0  0  0  0  0  0  0  0  0  0  0
   63.1596   33.1653   29.5546 C   0  0  0  0  0  0  0  0  0  0  0  0
   64.0597   33.5182   30.5392 C   0  0  0  0  0  0  0  0  0  0  0  0
   65.2397   34.2055   30.3089 N   0  0  0  0  0  0  0  0  0  0  0  0
   63.7647   33.1620   31.8004 N   0  0  0  0  0  0  0  0  0  0  0  0
   62.6232   32.4790   32.0256 C   0  0  0  0  0  0  0  0  0  0  0  0
   61.7039   32.0870   31.1287 N   0  0  0  0  0  0  0  0  0  0  0  0
   62.0158   32.4587   29.8697 C   0  0  0  0  0  0  0  0  0  0  0  0
   63.7847   33.8834   27.7176 H   0  0  0  0  0  0  0  0  0  0  0  0
   65.4800   34.4784   29.3940 H   0  0  0  0  0  0  0  0  0  0  0  0
   65.8383   34.4213   31.0602 H   0  0  0  0  0  0  0  0  0  0  0  0
   60.0078   30.7497   27.1180 C   0  0  0  0  0  0  0  0  0  0  0  0
   60.5915   29.4187   27.5874 C   0  0  0  0  0  0  0  0  0  0  0  0
   60.3432   28.3242   26.7153 O   0  0  0  0  0  0  0  0  0  0  0  0
   59.9356   29.2666   28.9592 C   0  0  0  0  0  0  0  0  0  0  0  0
   59.7909   30.5954   29.5034 O   0  0  0  0  0  0  0  0  0  0  0  0
   60.0401   31.5480   28.4328 C   0  0  0  0  0  0  0  0  0  0  0  0
   59.3864   28.2115   26.6022 H   0  0  0  0  0  0  0  0  0  0  0  0
   60.7509   28.4251   29.9407 C   0  0  0  0  0  0  0  0  0  0  0  0
   61.6376   29.2307   30.7168 O   0  0  0  0  0  0  0  0  0  0  0  0
   62.2639   29.6809   30.1287 H   0  0  0  0  0  0  0  0  0  0  0  0
   58.4459   30.9173   25.3235 C   0  0  0  0  0  0  0  0  0  0  0  0
   58.6329   30.6258   26.7024 O   0  0  0  0  0  0  0  0  0  0  0  0
 24 25  1  0
 14 25  1  0
 14 15  1  0
 15 16  1  0
 15 17  1  0
 17 21  1  0
 21 22  1  0
 17 18  1  0
 18 19  1  0
 19  1  1  0
  1  2  2  0
  2  3  1  0
  3  4  1  0
  4  5  2  0
  5  6  1  0
  5  7  1  0
  7  8  2  0
  8  9  1  0
  9 10  2  0
 19 14  1  0
 10  1  1  0
 10  4  1  0
 16 20  1  0
 22 23  1  0
  3 11  1  0
  6 12  1  0
  6 13  1  0
M  END
> <minimizedAffinity>
-5.10490

> <CNNscore>
0.1872433126

> <CNNaffinity>
3.4164073467

> <CNN_VS>
0.6396993995

> <CNNaffinity_variance>
0.5852314830

$$$$



 25 27  0  0  0  0  0  0  0  0999 V2000
   63.0543   31.4687   28.1146 C   0  0  0  0  0  0  0  0  0  0  0  0
   62.5160   32.6849   27.8864 N   0  0  0  0  0  0  0  0  0  0  0  0
   63.1909   33.4921   28.7316 N   0  0  0  0  0  0  0  0  0  0  0  0
   64.1314   32.8525   29.4803 C   0  0  0  0  0  0  0  0  0  0  0  0
   65.0254   33.2634   30.4478 C   0  0  0  0  0  0  0  0  0  0  0  0
   65.1857   34.5769   30.8561 N   0  0  0  0  0  0  0  0  0  0  0  0
   65.7897   32.3193   31.0216 N   0  0  0  0  0  0  0  0  0  0  0  0
   65.6464   31.0409   30.6149 C   0  0  0  0  0  0  0  0  0  0  0  0
   64.8145   30.5602   29.6768 N   0  0  0  0  0  0  0  0  0  0  0  0
   64.0525   31.5227   29.1167 C   0  0  0  0  0  0  0  0  0  0  0  0
   63.0183   34.4588   28.8008 H   0  0  0  0  0  0  0  0  0  0  0  0
   64.6383   35.2884   30.4518 H   0  0  0  0  0  0  0  0  0  0  0  0
   65.8471   34.7993   31.5506 H   0  0  0  0  0  0  0  0  0  0  0  0
   61.8879   29.2308   28.3058 C   0  0  0  0  0  0  0  0  0  0  0  0
   60.4492   29.7376   28.2310 C   0  0  0  0  0  0  0  0  0  0  0  0
   59.4695   28.8007   28.6585 O   0  0  0  0  0  0  0  0  0  0  0  0
   60.3346   30.1084   26.7528 C   0  0  0  0  0  0  0  0  0  0  0  0
   61.6333   30.5818   26.3384 O   0  0  0  0  0  0  0  0  0  0  0  0
   62.5885   30.2413   27.3811 C   0  0  0  0  0  0  0  0  0  0  0  0
   59.5350   27.9963   28.1204 H   0  0  0  0  0  0  0  0  0  0  0  0
   59.3053   31.2027   26.4714 C   0  0  0  0  0  0  0  0  0  0  0  0
   58.1036   30.6673   25.9174 O   0  0  0  0  0  0  0  0  0  0  0  0
   58.3027   30.2306   25.0745 H   0  0  0  0  0  0  0  0  0  0  0  0
   63.3941   27.5388   27.5600 C   0  0  0  0  0  0  0  0  0  0  0  0
   62.0343   27.9180   27.7281 O   0  0  0  0  0  0  0  0  0  0  0  0
 24 25  1  0
 14 25  1  0
 14 15  1  0
 15 16  1  0
 15 17  1  0
 17 21  1  0
 21 22  1  0
 17 18  1  0
 18 19  1  0
 19  1  1  0
  1  2  2  0
  2  3  1  0
  3  4  1  0
  4  5  2  0
  5  6  1  0
  5  7  1  0
  7  8  2  0
  8  9  1  0
  9 10  2  0
 19 14  1  0
 10  1  1  0
 10  4  1  0
 16 20  1  0
 22 23  1  0
  3 11  1  0
  6 12  1  0
  6 13  1  0
M  END
> <minimizedAffinity>
-4.90911

> <CNNscore>
0.1729917824

> <CNNaffinity>
3.8472957611

> <CNN_VS>
0.6655505300

> <CNNaffinity_variance>
0.1593881994

$$$$



 25 27  0  0  0  0  0  0  0  0999 V2000
   59.2136   29.9146   25.4046 C   0  0  0  0  0  0  0  0  0  0  0  0
   58.4563   29.3569   26.3722 N   0  0  0  0  0  0  0  0  0  0  0  0
   58.7789   30.0668   27.4737 N   0  0  0  0  0  0  0  0  0  0  0  0
   59.6974   31.0478   27.2545 C   0  0  0  0  0  0  0  0  0  0  0  0
   60.3068   31.9855   28.0629 C   0  0  0  0  0  0  0  0  0  0  0  0
   60.0280   32.1562   29.4086 N   0  0  0  0  0  0  0  0  0  0  0  0
   61.2263   32.7840   27.4956 N   0  0  0  0  0  0  0  0  0  0  0  0
   61.4888   32.6301   26.1813 C   0  0  0  0  0  0  0  0  0  0  0  0
   60.9358   31.7563   25.3246 N   0  0  0  0  0  0  0  0  0  0  0  0
   60.0195   30.9607   25.9145 C   0  0  0  0  0  0  0  0  0  0  0  0
   58.3846   29.8908   28.3584 H   0  0  0  0  0  0  0  0  0  0  0  0
   59.3585   31.5843   29.8490 H   0  0  0  0  0  0  0  0  0  0  0  0
   60.4993   32.8494   29.9249 H   0  0  0  0  0  0  0  0  0  0  0  0
   58.8361   27.9259   23.8854 C   0  0  0  0  0  0  0  0  0  0  0  0
   57.3117   27.9957   23.8242 C   0  0  0  0  0  0  0  0  0  0  0  0
   56.6851   26.8164   23.3377 O   0  0  0  0  0  0  0  0  0  0  0  0
   57.0995   29.2140   22.9264 C   0  0  0  0  0  0  0  0  0  0  0  0
   58.1784   30.1314   23.2042 O   0  0  0  0  0  0  0  0  0  0  0  0
   59.1805   29.4221   23.9841 C   0  0  0  0  0  0  0  0  0  0  0  0
   57.0146   26.6192   22.4469 H   0  0  0  0  0  0  0  0  0  0  0  0
   55.7736   29.9342   23.1704 C   0  0  0  0  0  0  0  0  0  0  0  0
   55.8933   30.9310   24.1851 O   0  0  0  0  0  0  0  0  0  0  0  0
   56.1557   30.5127   25.0200 H   0  0  0  0  0  0  0  0  0  0  0  0
   60.7764   27.7651   22.5081 C   0  0  0  0  0  0  0  0  0  0  0  0
   59.4079   27.4138   22.6650 O   0  0  0  0  0  0  0  0  0  0  0  0
 24 25  1  0
 14 25  1  0
 14 15  1  0
 15 16  1  0
 15 17  1  0
 17 21  1  0
 21 22  1  0
 17 18  1  0
 18 19  1  0
 19  1  1  0
  1  2  2  0
  2  3  1  0
  3  4  1  0
  4  5  2  0
  5  6  1  0
  5  7  1  0
  7  8  2  0
  8  9  1  0
  9 10  2  0
 19 14  1  0
 10  1  1  0
 10  4  1  0
 16 20  1  0
 22 23  1  0
  3 11  1  0
  6 12  1  0
  6 13  1  0
M  END
> <minimizedAffinity>
-4.55861

> <CNNscore>
0.1565720439

> <CNNaffinity>
3.8266093731

> <CNN_VS>
0.5991400480

> <CNNaffinity_variance>
0.1601439416

$$$$



 25 27  0  0  0  0  0  0  0  0999 V2000
   63.2816   31.3634   29.2964 C   0  0  0  0  0  0  0  0  0  0  0  0
   62.7178   32.5707   29.5090 N   0  0  0  0  0  0  0  0  0  0  0  0
   63.6855   33.2630   30.1459 N   0  0  0  0  0  0  0  0  0  0  0  0
   64.8344   32.5597   30.3442 C   0  0  0  0  0  0  0  0  0  0  0  0
   66.0450   32.8531   30.9380 C   0  0  0  0  0  0  0  0  0  0  0  0
   66.3760   34.0888   31.4683 N   0  0  0  0  0  0  0  0  0  0  0  0
   66.9578   31.8690   30.9955 N   0  0  0  0  0  0  0  0  0  0  0  0
   66.6436   30.6686   30.4659 C   0  0  0  0  0  0  0  0  0  0  0  0
   65.5005   30.3049   29.8625 N   0  0  0  0  0  0  0  0  0  0  0  0
   64.5956   31.3049   29.8196 C   0  0  0  0  0  0  0  0  0  0  0  0
   63.5707   34.1952   30.4412 H   0  0  0  0  0  0  0  0  0  0  0  0
   65.7255   34.8272   31.4392 H   0  0  0  0  0  0  0  0  0  0  0  0
   67.2618   34.2289   31.8744 H   0  0  0  0  0  0  0  0  0  0  0  0
   61.0155   30.3956   28.7188 C   0  0  0  0  0  0  0  0  0  0  0  0
   60.7282   31.2550   27.4894 C   0  0  0  0  0  0  0  0  0  0  0  0
   59.3696   31.2538   27.0719 O   0  0  0  0  0  0  0  0  0  0  0  0
   61.6822   30.6449   26.4631 C   0  0  0  0  0  0  0  0  0  0  0  0
   62.8537   30.2123   27.1863 O   0  0  0  0  0  0  0  0  0  0  0  0
   62.5430   30.2497   28.6068 C   0  0  0  0  0  0  0  0  0  0  0  0
   59.0920   30.3450   26.8770 H   0  0  0  0  0  0  0  0  0  0  0  0
   62.1178   31.6222   25.3715 C   0  0  0  0  0  0  0  0  0  0  0  0
   62.6531   30.9416   24.2366 O   0  0  0  0  0  0  0  0  0  0  0  0
   63.4358   30.4345   24.5032 H   0  0  0  0  0  0  0  0  0  0  0  0
   59.5298   28.7943   29.6759 C   0  0  0  0  0  0  0  0  0  0  0  0
   60.4308   29.0820   28.6146 O   0  0  0  0  0  0  0  0  0  0  0  0
 24 25  1  0
 14 25  1  0
 14 15  1  0
 15 16  1  0
 15 17  1  0
 17 21  1  0
 21 22  1  0
 17 18  1  0
 18 19  1  0
 19  1  1  0
  1  2  2  0
  2  3  1  0
  3  4  1  0
  4  5  2  0
  5  6  1  0
  5  7  1  0
  7  8  2  0
  8  9  1  0
  9 10  2  0
 19 14  1  0
 10  1  1  0
 10  4  1  0
 16 20  1  0
 22 23  1  0
  3 11  1  0
  6 12  1  0
  6 13  1  0
M  END
> <minimizedAffinity>
-5.31123

> <CNNscore>
0.1564728469

> <CNNaffinity>
3.5456829071

> <CNN_VS>
0.5548030734

> <CNNaffinity_variance>
0.3948138058

$$$$
