


 28 30  0  0  0  0  0  0  0  0999 V2000
    2.9929   50.3662   -1.5113 C   0  0  0  0  0  0  0  0  0  0  0  0
    2.3744   50.8177   -2.8308 C   0  0  0  0  0  0  0  0  0  0  0  0
    2.6657   49.8262   -3.9696 C   0  0  0  0  0  0  0  0  0  0  0  0
    4.0642   49.9262   -4.5168 C   0  0  0  0  0  0  0  0  0  0  0  0
    4.6011   48.7312   -5.0948 O   0  0  0  0  0  0  0  0  0  0  0  0
    4.2681   49.7837   -6.0121 C   0  0  0  0  0  0  0  0  0  0  0  0
    5.2618   50.6445   -6.6667 C   0  0  0  0  0  0  0  0  0  0  0  0
    5.2246   51.9772   -6.8527 C   0  0  0  0  0  0  0  0  0  0  0  0
    4.2120   52.8993   -6.3713 C   0  0  0  0  0  0  0  0  0  0  0  0
    2.8950   52.6589   -6.3984 C   0  0  0  0  0  0  0  0  0  0  0  0
    1.7798   53.4744   -5.8457 C   0  0  0  0  0  0  0  0  0  0  0  0
    0.6481   52.9880   -5.9386 O   0  0  0  0  0  0  0  0  0  0  0  0
    1.9620   54.8612   -5.2644 C   0  0  0  0  0  0  0  0  0  0  0  0
    3.0659   55.1065   -4.2510 C   0  0  0  0  0  0  0  0  0  0  0  0
    3.9901   56.1686   -4.4170 C   0  0  0  0  0  0  0  0  0  0  0  0
    3.9626   57.1781   -5.8290 Cl  0  0  0  0  0  0  0  0  0  0  0  0
    4.9709   56.4265   -3.4467 C   0  0  0  0  0  0  0  0  0  0  0  0
    5.8736   57.4447   -3.6139 O   0  0  0  0  0  0  0  0  0  0  0  0
    5.0379   55.6463   -2.3014 C   0  0  0  0  0  0  0  0  0  0  0  0
    5.9787   55.9013   -1.3786 F   0  0  0  0  0  0  0  0  0  0  0  0
    4.1474   54.6037   -2.1019 C   0  0  0  0  0  0  0  0  0  0  0  0
    4.2408   53.8481   -0.9644 O   0  0  0  0  0  0  0  0  0  0  0  0
    3.1674   54.3345   -3.0666 C   0  0  0  0  0  0  0  0  0  0  0  0
    2.2643   53.2043   -2.7967 C   0  0  0  0  0  0  0  0  0  0  0  0
    1.1504   53.3001   -2.3227 O   0  0  0  0  0  0  0  0  0  0  0  0
    2.9363   52.0974   -3.1783 O   0  0  0  0  0  0  0  0  0  0  0  0
    5.8397   57.9793   -4.3826 H   0  0  0  0  0  0  0  0  0  0  0  0
    4.9011   54.0395   -0.3277 H   0  0  0  0  0  0  0  0  0  0  0  0
  2  1  1  0
  2  3  1  0
  4  3  1  0
  4  5  1  0
  6  5  1  0
  6  7  1  0
  7  8  2  0
  8  9  1  0
  9 10  2  0
 10 11  1  0
 11 12  2  0
 11 13  1  0
 13 14  1  0
 14 15  2  0
 15 16  1  0
 15 17  1  0
 17 18  1  0
 17 19  2  0
 19 20  1  0
 19 21  1  0
 21 22  1  0
 21 23  2  0
 23 24  1  0
 24 25  2  0
 24 26  1  0
 26  2  1  0
  6  4  1  0
 23 14  1  0
 18 27  1  0
 22 28  1  0
M  END
> <minimizedAffinity>
-8.64684

> <CNNscore>
0.8151853681

> <CNNaffinity>
5.8373317719

> <CNN_VS>
4.7585072517

> <CNNaffinity_variance>
0.0748072788

$$$$



 28 30  0  0  0  0  0  0  0  0999 V2000
    3.2810   50.6443   -1.4055 C   0  0  0  0  0  0  0  0  0  0  0  0
    2.5866   50.5316   -2.7594 C   0  0  0  0  0  0  0  0  0  0  0  0
    3.2012   49.4218   -3.6284 C   0  0  0  0  0  0  0  0  0  0  0  0
    4.5126   49.8036   -4.2605 C   0  0  0  0  0  0  0  0  0  0  0  0
    5.4095   48.7257   -4.5502 O   0  0  0  0  0  0  0  0  0  0  0  0
    4.7890   49.3544   -5.6815 C   0  0  0  0  0  0  0  0  0  0  0  0
    5.4819   50.2819   -6.5852 C   0  0  0  0  0  0  0  0  0  0  0  0
    5.0365   51.4449   -7.0963 C   0  0  0  0  0  0  0  0  0  0  0  0
    3.7751   52.1019   -6.8050 C   0  0  0  0  0  0  0  0  0  0  0  0
    2.5996   51.4698   -6.6974 C   0  0  0  0  0  0  0  0  0  0  0  0
    1.2721   52.0158   -6.3049 C   0  0  0  0  0  0  0  0  0  0  0  0
    0.3508   51.1983   -6.2099 O   0  0  0  0  0  0  0  0  0  0  0  0
    0.9985   53.4914   -6.1001 C   0  0  0  0  0  0  0  0  0  0  0  0
    1.9449   54.3140   -5.2436 C   0  0  0  0  0  0  0  0  0  0  0  0
    2.4965   55.5293   -5.7213 C   0  0  0  0  0  0  0  0  0  0  0  0
    2.1923   56.0863   -7.3373 Cl  0  0  0  0  0  0  0  0  0  0  0  0
    3.3230   56.3147   -4.9028 C   0  0  0  0  0  0  0  0  0  0  0  0
    3.8679   57.4829   -5.3696 O   0  0  0  0  0  0  0  0  0  0  0  0
    3.6002   55.9121   -3.6044 C   0  0  0  0  0  0  0  0  0  0  0  0
    4.3909   56.6703   -2.8287 F   0  0  0  0  0  0  0  0  0  0  0  0
    3.0737   54.7334   -3.1010 C   0  0  0  0  0  0  0  0  0  0  0  0
    3.3684   54.3595   -1.8177 O   0  0  0  0  0  0  0  0  0  0  0  0
    2.2512   53.9394   -3.9113 C   0  0  0  0  0  0  0  0  0  0  0  0
    1.7383   52.6945   -3.3173 C   0  0  0  0  0  0  0  0  0  0  0  0
    0.6381   52.5609   -2.8209 O   0  0  0  0  0  0  0  0  0  0  0  0
    2.7309   51.7890   -3.4468 O   0  0  0  0  0  0  0  0  0  0  0  0
    3.6890   57.7666   -6.2445 H   0  0  0  0  0  0  0  0  0  0  0  0
    3.9199   54.9002   -1.2871 H   0  0  0  0  0  0  0  0  0  0  0  0
  2  1  1  0
  2  3  1  0
  4  3  1  0
  4  5  1  0
  6  5  1  0
  6  7  1  0
  7  8  2  0
  8  9  1  0
  9 10  2  0
 10 11  1  0
 11 12  2  0
 11 13  1  0
 13 14  1  0
 14 15  2  0
 15 16  1  0
 15 17  1  0
 17 18  1  0
 17 19  2  0
 19 20  1  0
 19 21  1  0
 21 22  1  0
 21 23  2  0
 23 24  1  0
 24 25  2  0
 24 26  1  0
 26  2  1  0
  6  4  1  0
 23 14  1  0
 18 27  1  0
 22 28  1  0
M  END
> <minimizedAffinity>
-8.61717

> <CNNscore>
0.7039666176

> <CNNaffinity>
5.7609138489

> <CNN_VS>
4.0554909706

> <CNNaffinity_variance>
0.0337608941

$$$$



 28 30  0  0  0  0  0  0  0  0999 V2000
    0.4074   49.9304   -8.5229 C   0  0  0  0  0  0  0  0  0  0  0  0
    1.5896   49.7466   -7.5761 C   0  0  0  0  0  0  0  0  0  0  0  0
    1.2483   48.8058   -6.4086 C   0  0  0  0  0  0  0  0  0  0  0  0
    0.4083   49.4489   -5.3382 C   0  0  0  0  0  0  0  0  0  0  0  0
   -0.4281   48.5680   -4.5800 O   0  0  0  0  0  0  0  0  0  0  0  0
    0.7040   49.1167   -3.8891 C   0  0  0  0  0  0  0  0  0  0  0  0
    0.6132   50.1924   -2.8932 C   0  0  0  0  0  0  0  0  0  0  0  0
    1.4035   51.2729   -2.7512 C   0  0  0  0  0  0  0  0  0  0  0  0
    2.5008   51.6730   -3.6134 C   0  0  0  0  0  0  0  0  0  0  0  0
    3.4072   50.8307   -4.1252 C   0  0  0  0  0  0  0  0  0  0  0  0
    4.5033   51.1055   -5.0933 C   0  0  0  0  0  0  0  0  0  0  0  0
    5.1609   50.1286   -5.4669 O   0  0  0  0  0  0  0  0  0  0  0  0
    4.8805   52.4955   -5.5621 C   0  0  0  0  0  0  0  0  0  0  0  0
    3.7934   53.4432   -6.0375 C   0  0  0  0  0  0  0  0  0  0  0  0
    3.6890   54.7580   -5.5179 C   0  0  0  0  0  0  0  0  0  0  0  0
    4.7363   55.3146   -4.2502 Cl  0  0  0  0  0  0  0  0  0  0  0  0
    2.7194   55.6486   -6.0044 C   0  0  0  0  0  0  0  0  0  0  0  0
    2.6092   56.9154   -5.4921 O   0  0  0  0  0  0  0  0  0  0  0  0
    1.8554   55.2515   -7.0148 C   0  0  0  0  0  0  0  0  0  0  0  0
    0.9320   56.1106   -7.4743 F   0  0  0  0  0  0  0  0  0  0  0  0
    1.9319   53.9764   -7.5513 C   0  0  0  0  0  0  0  0  0  0  0  0
    1.0630   53.6114   -8.5440 O   0  0  0  0  0  0  0  0  0  0  0  0
    2.8931   53.0778   -7.0695 C   0  0  0  0  0  0  0  0  0  0  0  0
    2.9088   51.7363   -7.6746 C   0  0  0  0  0  0  0  0  0  0  0  0
    3.6560   51.3816   -8.5636 O   0  0  0  0  0  0  0  0  0  0  0  0
    1.9442   51.0359   -7.0412 O   0  0  0  0  0  0  0  0  0  0  0  0
    3.1862   57.1965   -4.8096 H   0  0  0  0  0  0  0  0  0  0  0  0
    0.4253   54.2226   -8.8565 H   0  0  0  0  0  0  0  0  0  0  0  0
  2  1  1  0
  2  3  1  0
  4  3  1  0
  4  5  1  0
  6  5  1  0
  6  7  1  0
  7  8  2  0
  8  9  1  0
  9 10  2  0
 10 11  1  0
 11 12  2  0
 11 13  1  0
 13 14  1  0
 14 15  2  0
 15 16  1  0
 15 17  1  0
 17 18  1  0
 17 19  2  0
 19 20  1  0
 19 21  1  0
 21 22  1  0
 21 23  2  0
 23 24  1  0
 24 25  2  0
 24 26  1  0
 26  2  1  0
  6  4  1  0
 23 14  1  0
 18 27  1  0
 22 28  1  0
M  END
> <minimizedAffinity>
-8.24763

> <CNNscore>
0.3541089296

> <CNNaffinity>
5.1956286430

> <CNN_VS>
1.8398184776

> <CNNaffinity_variance>
0.1627769321

$$$$



 28 30  0  0  0  0  0  0  0  0999 V2000
   -0.5460   48.3760   -3.9772 C   0  0  0  0  0  0  0  0  0  0  0  0
    0.2334   47.6526   -5.0712 C   0  0  0  0  0  0  0  0  0  0  0  0
   -0.2949   46.2275   -5.3051 C   0  0  0  0  0  0  0  0  0  0  0  0
    0.1384   45.2408   -4.2545 C   0  0  0  0  0  0  0  0  0  0  0  0
   -0.7342   44.1261   -4.0396 O   0  0  0  0  0  0  0  0  0  0  0  0
    0.5125   43.8379   -4.6898 C   0  0  0  0  0  0  0  0  0  0  0  0
    1.6480   43.1810   -4.0294 C   0  0  0  0  0  0  0  0  0  0  0  0
    2.9553   43.4941   -4.1003 C   0  0  0  0  0  0  0  0  0  0  0  0
    3.5478   44.6220   -4.7963 C   0  0  0  0  0  0  0  0  0  0  0  0
    3.1780   45.0392   -6.0138 C   0  0  0  0  0  0  0  0  0  0  0  0
    3.6354   46.2319   -6.7769 C   0  0  0  0  0  0  0  0  0  0  0  0
    3.0775   46.4352   -7.8602 O   0  0  0  0  0  0  0  0  0  0  0  0
    4.7705   47.1298   -6.3301 C   0  0  0  0  0  0  0  0  0  0  0  0
    4.8007   47.6386   -4.8997 C   0  0  0  0  0  0  0  0  0  0  0  0
    5.9589   47.4945   -4.0951 C   0  0  0  0  0  0  0  0  0  0  0  0
    7.3609   46.6490   -4.6725 Cl  0  0  0  0  0  0  0  0  0  0  0  0
    6.0007   48.0197   -2.7943 C   0  0  0  0  0  0  0  0  0  0  0  0
    7.1156   47.8681   -2.0111 O   0  0  0  0  0  0  0  0  0  0  0  0
    4.9050   48.7010   -2.2841 C   0  0  0  0  0  0  0  0  0  0  0  0
    4.9548   49.2008   -1.0393 F   0  0  0  0  0  0  0  0  0  0  0  0
    3.7581   48.8670   -3.0436 C   0  0  0  0  0  0  0  0  0  0  0  0
    2.6911   49.5396   -2.5119 O   0  0  0  0  0  0  0  0  0  0  0  0
    3.7040   48.3423   -4.3418 C   0  0  0  0  0  0  0  0  0  0  0  0
    2.4506   48.5432   -5.0864 C   0  0  0  0  0  0  0  0  0  0  0  0
    2.2578   49.4217   -5.9023 O   0  0  0  0  0  0  0  0  0  0  0  0
    1.6128   47.5723   -4.6649 O   0  0  0  0  0  0  0  0  0  0  0  0
    7.8626   47.4101   -2.3431 H   0  0  0  0  0  0  0  0  0  0  0  0
    2.7412   49.8852   -1.6424 H   0  0  0  0  0  0  0  0  0  0  0  0
  2  1  1  0
  2  3  1  0
  4  3  1  0
  4  5  1  0
  6  5  1  0
  6  7  1  0
  7  8  2  0
  8  9  1  0
  9 10  2  0
 10 11  1  0
 11 12  2  0
 11 13  1  0
 13 14  1  0
 14 15  2  0
 15 16  1  0
 15 17  1  0
 17 18  1  0
 17 19  2  0
 19 20  1  0
 19 21  1  0
 21 22  1  0
 21 23  2  0
 23 24  1  0
 24 25  2  0
 24 26  1  0
 26  2  1  0
  6  4  1  0
 23 14  1  0
 18 27  1  0
 22 28  1  0
M  END
> <minimizedAffinity>
-6.48517

> <CNNscore>
0.2794315517

> <CNNaffinity>
4.4442691803

> <CNN_VS>
1.2418690920

> <CNNaffinity_variance>
0.2855609059

$$$$



 28 30  0  0  0  0  0  0  0  0999 V2000
    5.0195   47.8797   -8.1023 C   0  0  0  0  0  0  0  0  0  0  0  0
    4.8188   48.0935   -6.6051 C   0  0  0  0  0  0  0  0  0  0  0  0
    3.8855   47.0348   -5.9946 C   0  0  0  0  0  0  0  0  0  0  0  0
    2.4284   47.2700   -6.2888 C   0  0  0  0  0  0  0  0  0  0  0  0
    1.5939   46.1065   -6.3072 O   0  0  0  0  0  0  0  0  0  0  0  0
    1.4157   46.9957   -5.1947 C   0  0  0  0  0  0  0  0  0  0  0  0
    0.2761   47.9110   -5.0522 C   0  0  0  0  0  0  0  0  0  0  0  0
    0.2777   49.1971   -4.6545 C   0  0  0  0  0  0  0  0  0  0  0  0
    1.4364   50.0148   -4.3439 C   0  0  0  0  0  0  0  0  0  0  0  0
    2.4972   49.5903   -3.6457 C   0  0  0  0  0  0  0  0  0  0  0  0
    3.7745   50.2964   -3.3559 C   0  0  0  0  0  0  0  0  0  0  0  0
    4.6314   49.6488   -2.7457 O   0  0  0  0  0  0  0  0  0  0  0  0
    4.0267   51.7500   -3.6990 C   0  0  0  0  0  0  0  0  0  0  0  0
    3.6938   52.2567   -5.0913 C   0  0  0  0  0  0  0  0  0  0  0  0
    2.8962   53.4135   -5.2786 C   0  0  0  0  0  0  0  0  0  0  0  0
    2.1862   54.2495   -3.9329 Cl  0  0  0  0  0  0  0  0  0  0  0  0
    2.6418   53.9107   -6.5663 C   0  0  0  0  0  0  0  0  0  0  0  0
    1.8588   55.0212   -6.7484 O   0  0  0  0  0  0  0  0  0  0  0  0
    3.1828   53.2769   -7.6756 C   0  0  0  0  0  0  0  0  0  0  0  0
    2.9348   53.7604   -8.9030 F   0  0  0  0  0  0  0  0  0  0  0  0
    3.9724   52.1476   -7.5308 C   0  0  0  0  0  0  0  0  0  0  0  0
    4.4886   51.5410   -8.6440 O   0  0  0  0  0  0  0  0  0  0  0  0
    4.2286   51.6401   -6.2501 C   0  0  0  0  0  0  0  0  0  0  0  0
    5.0631   50.4304   -6.1711 C   0  0  0  0  0  0  0  0  0  0  0  0
    6.2549   50.4199   -5.9385 O   0  0  0  0  0  0  0  0  0  0  0  0
    4.2317   49.3940   -6.4095 O   0  0  0  0  0  0  0  0  0  0  0  0
    1.4871   55.4589   -6.0080 H   0  0  0  0  0  0  0  0  0  0  0  0
    4.3090   51.8913   -9.4943 H   0  0  0  0  0  0  0  0  0  0  0  0
  2  1  1  0
  2  3  1  0
  4  3  1  0
  4  5  1  0
  6  5  1  0
  6  7  1  0
  7  8  2  0
  8  9  1  0
  9 10  2  0
 10 11  1  0
 11 12  2  0
 11 13  1  0
 13 14  1  0
 14 15  2  0
 15 16  1  0
 15 17  1  0
 17 18  1  0
 17 19  2  0
 19 20  1  0
 19 21  1  0
 21 22  1  0
 21 23  2  0
 23 24  1  0
 24 25  2  0
 24 26  1  0
 26  2  1  0
  6  4  1  0
 23 14  1  0
 18 27  1  0
 22 28  1  0
M  END
> <minimizedAffinity>
-7.53126

> <CNNscore>
0.2540583313

> <CNNaffinity>
4.9286522865

> <CNN_VS>
1.2521651983

> <CNNaffinity_variance>
0.1493100524

$$$$



 28 30  0  0  0  0  0  0  0  0999 V2000
    2.4930   54.1123   -7.8139 C   0  0  0  0  0  0  0  0  0  0  0  0
    1.8846   54.1659   -6.4158 C   0  0  0  0  0  0  0  0  0  0  0  0
    2.1082   55.5316   -5.7451 C   0  0  0  0  0  0  0  0  0  0  0  0
    3.5036   55.7250   -5.2154 C   0  0  0  0  0  0  0  0  0  0  0  0
    3.9678   57.0777   -5.1432 O   0  0  0  0  0  0  0  0  0  0  0  0
    3.6820   56.4388   -3.8901 C   0  0  0  0  0  0  0  0  0  0  0  0
    4.7135   55.9493   -2.9664 C   0  0  0  0  0  0  0  0  0  0  0  0
    4.7470   54.7888   -2.2850 C   0  0  0  0  0  0  0  0  0  0  0  0
    3.7918   53.6987   -2.3674 C   0  0  0  0  0  0  0  0  0  0  0  0
    2.4634   53.8586   -2.4209 C   0  0  0  0  0  0  0  0  0  0  0  0
    1.4009   52.8340   -2.6088 C   0  0  0  0  0  0  0  0  0  0  0  0
    0.2433   53.2561   -2.6973 O   0  0  0  0  0  0  0  0  0  0  0  0
    1.6651   51.3425   -2.6180 C   0  0  0  0  0  0  0  0  0  0  0  0
    2.7925   50.7897   -3.4720 C   0  0  0  0  0  0  0  0  0  0  0  0
    3.7712   49.9240   -2.9222 C   0  0  0  0  0  0  0  0  0  0  0  0
    3.7824   49.5305   -1.2314 Cl  0  0  0  0  0  0  0  0  0  0  0  0
    4.7759   49.3692   -3.7302 C   0  0  0  0  0  0  0  0  0  0  0  0
    5.7307   48.5432   -3.1959 O   0  0  0  0  0  0  0  0  0  0  0  0
    4.8135   49.6551   -5.0873 C   0  0  0  0  0  0  0  0  0  0  0  0
    5.7775   49.1190   -5.8522 F   0  0  0  0  0  0  0  0  0  0  0  0
    3.8699   50.4920   -5.6610 C   0  0  0  0  0  0  0  0  0  0  0  0
    3.9351   50.7596   -7.0017 O   0  0  0  0  0  0  0  0  0  0  0  0
    2.8655   51.0550   -4.8624 C   0  0  0  0  0  0  0  0  0  0  0  0
    1.9053   51.9451   -5.5345 C   0  0  0  0  0  0  0  0  0  0  0  0
    0.8039   51.6146   -5.9246 O   0  0  0  0  0  0  0  0  0  0  0  0
    2.5114   53.1488   -5.6114 O   0  0  0  0  0  0  0  0  0  0  0  0
    5.7171   48.3418   -2.2809 H   0  0  0  0  0  0  0  0  0  0  0  0
    4.6123   50.3761   -7.5236 H   0  0  0  0  0  0  0  0  0  0  0  0
  2  1  1  0
  2  3  1  0
  4  3  1  0
  4  5  1  0
  6  5  1  0
  6  7  1  0
  7  8  2  0
  8  9  1  0
  9 10  2  0
 10 11  1  0
 11 12  2  0
 11 13  1  0
 13 14  1  0
 14 15  2  0
 15 16  1  0
 15 17  1  0
 17 18  1  0
 17 19  2  0
 19 20  1  0
 19 21  1  0
 21 22  1  0
 21 23  2  0
 23 24  1  0
 24 25  2  0
 24 26  1  0
 26  2  1  0
  6  4  1  0
 23 14  1  0
 18 27  1  0
 22 28  1  0
M  END
> <minimizedAffinity>
-8.27080

> <CNNscore>
0.2501897216

> <CNNaffinity>
5.2851548195

> <CNN_VS>
1.3222913742

> <CNNaffinity_variance>
0.3112238050

$$$$



 28 30  0  0  0  0  0  0  0  0999 V2000
    4.3757   52.7384   -7.3911 C   0  0  0  0  0  0  0  0  0  0  0  0
    3.7973   51.6773   -8.3223 C   0  0  0  0  0  0  0  0  0  0  0  0
    2.5648   52.1928   -9.0838 C   0  0  0  0  0  0  0  0  0  0  0  0
    1.3124   52.2364   -8.2504 C   0  0  0  0  0  0  0  0  0  0  0  0
    0.3341   53.2090   -8.6343 O   0  0  0  0  0  0  0  0  0  0  0  0
   -0.0002   51.8378   -8.8954 C   0  0  0  0  0  0  0  0  0  0  0  0
   -0.9625   51.0638   -8.1005 C   0  0  0  0  0  0  0  0  0  0  0  0
   -0.8575   49.7972   -7.6568 C   0  0  0  0  0  0  0  0  0  0  0  0
    0.2857   48.9135   -7.7973 C   0  0  0  0  0  0  0  0  0  0  0  0
    1.0175   48.7940   -8.9122 C   0  0  0  0  0  0  0  0  0  0  0  0
    2.2598   48.0074   -9.1405 C   0  0  0  0  0  0  0  0  0  0  0  0
    2.7866   48.1268  -10.2515 O   0  0  0  0  0  0  0  0  0  0  0  0
    2.8399   47.0417   -8.1279 C   0  0  0  0  0  0  0  0  0  0  0  0
    3.0061   47.4841   -6.6848 C   0  0  0  0  0  0  0  0  0  0  0  0
    2.5009   46.7020   -5.6159 C   0  0  0  0  0  0  0  0  0  0  0  0
    1.5894   45.2536   -5.9079 Cl  0  0  0  0  0  0  0  0  0  0  0  0
    2.7099   47.0864   -4.2823 C   0  0  0  0  0  0  0  0  0  0  0  0
    2.2093   46.3375   -3.2489 O   0  0  0  0  0  0  0  0  0  0  0  0
    3.4289   48.2377   -3.9952 C   0  0  0  0  0  0  0  0  0  0  0  0
    3.6244   48.5966   -2.7166 F   0  0  0  0  0  0  0  0  0  0  0  0
    3.9431   49.0238   -5.0137 C   0  0  0  0  0  0  0  0  0  0  0  0
    4.6443   50.1567   -4.7000 O   0  0  0  0  0  0  0  0  0  0  0  0
    3.7361   48.6517   -6.3487 C   0  0  0  0  0  0  0  0  0  0  0  0
    4.2979   49.5397   -7.3791 C   0  0  0  0  0  0  0  0  0  0  0  0
    5.3551   49.3636   -7.9499 O   0  0  0  0  0  0  0  0  0  0  0  0
    3.4063   50.5426   -7.5261 O   0  0  0  0  0  0  0  0  0  0  0  0
    1.7219   45.5577   -3.4286 H   0  0  0  0  0  0  0  0  0  0  0  0
    4.7750   50.3933   -3.8028 H   0  0  0  0  0  0  0  0  0  0  0  0
  2  1  1  0
  2  3  1  0
  4  3  1  0
  4  5  1  0
  6  5  1  0
  6  7  1  0
  7  8  2  0
  8  9  1  0
  9 10  2  0
 10 11  1  0
 11 12  2  0
 11 13  1  0
 13 14  1  0
 14 15  2  0
 15 16  1  0
 15 17  1  0
 17 18  1  0
 17 19  2  0
 19 20  1  0
 19 21  1  0
 21 22  1  0
 21 23  2  0
 23 24  1  0
 24 25  2  0
 24 26  1  0
 26  2  1  0
  6  4  1  0
 23 14  1  0
 18 27  1  0
 22 28  1  0
M  END
> <minimizedAffinity>
-5.89321

> <CNNscore>
0.2479394227

> <CNNaffinity>
4.4857840538

> <CNN_VS>
1.1122027636

> <CNNaffinity_variance>
0.1093756557

$$$$



 28 30  0  0  0  0  0  0  0  0999 V2000
    6.1810   47.8766   -6.8397 C   0  0  0  0  0  0  0  0  0  0  0  0
    6.6610   46.6116   -7.5447 C   0  0  0  0  0  0  0  0  0  0  0  0
    5.6050   45.4947   -7.5007 C   0  0  0  0  0  0  0  0  0  0  0  0
    5.5165   44.7970   -6.1701 C   0  0  0  0  0  0  0  0  0  0  0  0
    4.2470   44.2200   -5.8448 O   0  0  0  0  0  0  0  0  0  0  0  0
    5.3017   43.2965   -6.1527 C   0  0  0  0  0  0  0  0  0  0  0  0
    6.0136   42.5006   -5.1444 C   0  0  0  0  0  0  0  0  0  0  0  0
    7.3343   42.2589   -5.0458 C   0  0  0  0  0  0  0  0  0  0  0  0
    8.3877   42.8033   -5.8833 C   0  0  0  0  0  0  0  0  0  0  0  0
    8.3082   42.9284   -7.2141 C   0  0  0  0  0  0  0  0  0  0  0  0
    9.2707   43.5595   -8.1572 C   0  0  0  0  0  0  0  0  0  0  0  0
    8.9225   43.6105   -9.3414 O   0  0  0  0  0  0  0  0  0  0  0  0
   10.6433   44.0539   -7.7501 C   0  0  0  0  0  0  0  0  0  0  0  0
   10.7856   44.9310   -6.5187 C   0  0  0  0  0  0  0  0  0  0  0  0
   11.7216   44.6186   -5.5009 C   0  0  0  0  0  0  0  0  0  0  0  0
   12.6805   43.1729   -5.5676 Cl  0  0  0  0  0  0  0  0  0  0  0  0
   11.8900   45.4655   -4.3944 C   0  0  0  0  0  0  0  0  0  0  0  0
   12.7850   45.1562   -3.4031 O   0  0  0  0  0  0  0  0  0  0  0  0
   11.1452   46.6315   -4.2917 C   0  0  0  0  0  0  0  0  0  0  0  0
   11.3140   47.4357   -3.2303 F   0  0  0  0  0  0  0  0  0  0  0  0
   10.2255   46.9727   -5.2702 C   0  0  0  0  0  0  0  0  0  0  0  0
    9.5016   48.1270   -5.1394 O   0  0  0  0  0  0  0  0  0  0  0  0
   10.0460   46.1318   -6.3767 C   0  0  0  0  0  0  0  0  0  0  0  0
    9.0432   46.5482   -7.3700 C   0  0  0  0  0  0  0  0  0  0  0  0
    9.2889   47.1338   -8.4050 O   0  0  0  0  0  0  0  0  0  0  0  0
    7.8511   46.1478   -6.8792 O   0  0  0  0  0  0  0  0  0  0  0  0
   13.2945   44.3719   -3.4599 H   0  0  0  0  0  0  0  0  0  0  0  0
    9.6320   48.6798   -4.3942 H   0  0  0  0  0  0  0  0  0  0  0  0
  2  1  1  0
  2  3  1  0
  4  3  1  0
  4  5  1  0
  6  5  1  0
  6  7  1  0
  7  8  2  0
  8  9  1  0
  9 10  2  0
 10 11  1  0
 11 12  2  0
 11 13  1  0
 13 14  1  0
 14 15  2  0
 15 16  1  0
 15 17  1  0
 17 18  1  0
 17 19  2  0
 19 20  1  0
 19 21  1  0
 21 22  1  0
 21 23  2  0
 23 24  1  0
 24 25  2  0
 24 26  1  0
 26  2  1  0
  6  4  1  0
 23 14  1  0
 18 27  1  0
 22 28  1  0
M  END
> <minimizedAffinity>
-5.21351

> <CNNscore>
0.2448125184

> <CNNaffinity>
4.0764446259

> <CNN_VS>
0.9979646802

> <CNNaffinity_variance>
0.2739453316

$$$$



 28 30  0  0  0  0  0  0  0  0999 V2000
    2.5431   53.5520   -8.2148 C   0  0  0  0  0  0  0  0  0  0  0  0
    2.4921   52.1257   -8.7539 C   0  0  0  0  0  0  0  0  0  0  0  0
    1.1352   51.8062   -9.4032 C   0  0  0  0  0  0  0  0  0  0  0  0
    0.0366   51.5386   -8.4099 C   0  0  0  0  0  0  0  0  0  0  0  0
   -1.2947   51.8289   -8.8501 O   0  0  0  0  0  0  0  0  0  0  0  0
   -0.9619   50.4394   -8.7140 C   0  0  0  0  0  0  0  0  0  0  0  0
   -1.4249   49.5908   -7.6083 C   0  0  0  0  0  0  0  0  0  0  0  0
   -0.7272   48.6865   -6.8959 C   0  0  0  0  0  0  0  0  0  0  0  0
    0.6900   48.3918   -7.0059 C   0  0  0  0  0  0  0  0  0  0  0  0
    1.3535   48.2859   -8.1641 C   0  0  0  0  0  0  0  0  0  0  0  0
    2.8102   48.0917   -8.3978 C   0  0  0  0  0  0  0  0  0  0  0  0
    3.1812   48.1010   -9.5761 O   0  0  0  0  0  0  0  0  0  0  0  0
    3.8083   47.8159   -7.2923 C   0  0  0  0  0  0  0  0  0  0  0  0
    3.8005   48.6838   -6.0463 C   0  0  0  0  0  0  0  0  0  0  0  0
    3.7553   48.1073   -4.7521 C   0  0  0  0  0  0  0  0  0  0  0  0
    3.6124   46.3912   -4.5317 Cl  0  0  0  0  0  0  0  0  0  0  0  0
    3.8085   48.9126   -3.6039 C   0  0  0  0  0  0  0  0  0  0  0  0
    3.7506   48.3561   -2.3523 O   0  0  0  0  0  0  0  0  0  0  0  0
    3.9191   50.2903   -3.7255 C   0  0  0  0  0  0  0  0  0  0  0  0
    3.9704   51.0522   -2.6216 F   0  0  0  0  0  0  0  0  0  0  0  0
    3.9723   50.8888   -4.9740 C   0  0  0  0  0  0  0  0  0  0  0  0
    4.0767   52.2506   -5.0629 O   0  0  0  0  0  0  0  0  0  0  0  0
    3.9151   50.0943   -6.1269 C   0  0  0  0  0  0  0  0  0  0  0  0
    3.9625   50.7970   -7.4192 C   0  0  0  0  0  0  0  0  0  0  0  0
    4.9594   50.9426   -8.0970 O   0  0  0  0  0  0  0  0  0  0  0  0
    2.7022   51.2196   -7.6543 O   0  0  0  0  0  0  0  0  0  0  0  0
    3.6758   47.4271   -2.2557 H   0  0  0  0  0  0  0  0  0  0  0  0
    4.1140   52.7695   -4.2835 H   0  0  0  0  0  0  0  0  0  0  0  0
  2  1  1  0
  2  3  1  0
  4  3  1  0
  4  5  1  0
  6  5  1  0
  6  7  1  0
  7  8  2  0
  8  9  1  0
  9 10  2  0
 10 11  1  0
 11 12  2  0
 11 13  1  0
 13 14  1  0
 14 15  2  0
 15 16  1  0
 15 17  1  0
 17 18  1  0
 17 19  2  0
 19 20  1  0
 19 21  1  0
 21 22  1  0
 21 23  2  0
 23 24  1  0
 24 25  2  0
 24 26  1  0
 26  2  1  0
  6  4  1  0
 23 14  1  0
 18 27  1  0
 22 28  1  0
M  END
> <minimizedAffinity>
-6.36335

> <CNNscore>
0.2244720012

> <CNNaffinity>
4.5630974770

> <CNN_VS>
1.0242875814

> <CNNaffinity_variance>
0.1568141580

$$$$
