


 44 45  0  0  0  0  0  0  0  0999 V2000
  -17.7111   51.7436   19.0159 N   0  0  0  0  0  0  0  0  0  0  0  0
  -18.3784   52.8801   19.4244 C   0  0  0  0  0  0  0  0  0  0  0  0
  -18.4088   53.2352   20.6023 O   0  0  0  0  0  0  0  0  0  0  0  0
  -17.9365   51.3370   18.1481 H   0  0  0  0  0  0  0  0  0  0  0  0
  -19.1441   53.6334   18.3932 C   0  0  0  0  0  0  0  0  0  0  0  0
  -20.2084   52.9832   17.7607 C   0  0  0  0  0  0  0  0  0  0  0  0
  -20.9030   53.6161   16.7294 C   0  0  0  0  0  0  0  0  0  0  0  0
  -20.5408   54.9038   16.3079 C   0  0  0  0  0  0  0  0  0  0  0  0
  -21.2121   55.5335   15.2487 C   0  0  0  0  0  0  0  0  0  0  0  0
  -20.8417   56.8149   14.8101 C   0  0  0  0  0  0  0  0  0  0  0  0
  -19.7965   57.4766   15.4622 C   0  0  0  0  0  0  0  0  0  0  0  0
  -19.1226   56.8631   16.5219 C   0  0  0  0  0  0  0  0  0  0  0  0
  -19.4749   55.5725   16.9502 C   0  0  0  0  0  0  0  0  0  0  0  0
  -18.7833   54.9274   17.9924 C   0  0  0  0  0  0  0  0  0  0  0  0
  -21.5373   57.4291   13.6238 C   0  0  0  0  0  0  0  0  0  0  0  0
  -22.2251   56.5359   12.8649 F   0  0  0  0  0  0  0  0  0  0  0  0
  -22.4029   58.4346   13.9441 F   0  0  0  0  0  0  0  0  0  0  0  0
  -20.4929   58.2660   12.3998 P   0  0  0  0  0  0  0  0  0  0  0  0
  -19.1884   58.8400   12.8710 O   0  0  0  0  0  0  0  0  0  0  0  0
  -20.2775   57.2999   11.1299 O   0  0  0  0  0  0  0  0  0  0  0  0
  -21.4244   59.3796   11.6868 O   0  0  0  0  0  0  0  0  0  0  0  0
  -19.7198   56.5487   11.3860 H   0  0  0  0  0  0  0  0  0  0  0  0
  -21.6584   60.0660   12.3310 H   0  0  0  0  0  0  0  0  0  0  0  0
  -16.6735   51.1304   19.8488 C   0  0  0  0  0  0  0  0  0  0  0  0
  -17.4245   50.1474   20.7796 C   0  0  0  0  0  0  0  0  0  0  0  0
  -18.2202   49.2098   20.1943 N   0  0  0  0  0  0  0  0  0  0  0  0
  -17.3332   50.2154   22.0030 O   0  0  0  0  0  0  0  0  0  0  0  0
  -18.2865   49.1636   19.2131 H   0  0  0  0  0  0  0  0  0  0  0  0
  -18.7291   48.5783   20.7523 H   0  0  0  0  0  0  0  0  0  0  0  0
  -15.8546   52.1599   20.6529 C   0  0  0  0  0  0  0  0  0  0  0  0
  -14.3497   51.8946   20.8879 C   0  0  0  0  0  0  0  0  0  0  0  0
  -13.3497   53.0307   20.5680 C   0  0  0  0  0  0  0  0  0  0  0  0
  -11.8394   52.8155   20.8994 N   0  0  0  0  0  0  0  0  0  0  0  0
  -11.7510   52.2594   22.3738 C   0  0  0  0  0  0  0  0  0  0  0  0
  -11.1028   54.1386   20.9041 C   0  0  0  0  0  0  0  0  0  0  0  0
  -11.1883   51.7033   20.0740 C   0  0  0  0  0  0  0  0  0  0  0  0
   -9.6450   51.5338   19.9480 N   0  0  0  0  0  0  0  0  0  0  0  0
   -8.9023   52.0511   21.1493 C   0  0  0  0  0  0  0  0  0  0  0  0
   -9.2826   52.4958   18.7678 C   0  0  0  0  0  0  0  0  0  0  0  0
   -9.3304   50.1011   19.5077 C   0  0  0  0  0  0  0  0  0  0  0  0
   -6.9535   50.1980   20.1487 C   0  0  0  0  0  0  0  0  0  0  0  0
   -7.9506   49.6676   19.0500 N   0  0  0  0  0  0  0  0  0  0  0  0
   -7.6899   48.1634   18.9861 C   0  0  0  0  0  0  0  0  0  0  0  0
   -7.4713   50.3180   17.7471 C   0  0  0  0  0  0  0  0  0  0  0  0
 41 42  1  0
 42 43  1  0
 42 44  1  0
 42 40  1  0
 40 37  1  0
 37 38  1  0
 37 39  1  0
 37 36  1  0
 36 33  1  0
 33 34  1  0
 33 35  1  0
 33 32  1  0
 32 31  1  0
 31 30  1  0
 24 30  1  0
 24  1  1  0
  1  2  1  0
  2  3  2  0
  2  5  1  0
  5  6  2  0
  6  7  1  0
  7  8  2  0
  8  9  1  0
  9 10  2  0
 10 15  1  0
 15 16  1  0
 15 17  1  0
 15 18  1  0
 18 19  2  0
 18 20  1  0
 18 21  1  0
 10 11  1  0
 11 12  2  0
 12 13  1  0
 13 14  2  0
 24 25  1  0
 25 26  1  0
 25 27  2  0
 14  5  1  0
 13  8  1  0
  1  4  1  0
 20 22  1  0
 21 23  1  0
 26 28  1  0
 26 29  1  0
M  CHG 1  33   1
M  CHG 1  37   1
M  CHG 1  42   1
M  END
> <minimizedAffinity>
-8.66391

> <CNNscore>
0.8161140084

> <CNNaffinity>
6.4187760353

> <CNN_VS>
5.2384529114

> <CNNaffinity_variance>
0.0970218778

$$$$



 44 45  0  0  0  0  0  0  0  0999 V2000
  -18.8119   52.4128   19.8270 N   0  0  0  0  0  0  0  0  0  0  0  0
  -18.4083   53.7316   19.8678 C   0  0  0  0  0  0  0  0  0  0  0  0
  -17.7814   54.1967   20.8192 O   0  0  0  0  0  0  0  0  0  0  0  0
  -19.5357   52.1480   19.2144 H   0  0  0  0  0  0  0  0  0  0  0  0
  -18.8323   54.6132   18.7453 C   0  0  0  0  0  0  0  0  0  0  0  0
  -18.4814   55.9656   18.8041 C   0  0  0  0  0  0  0  0  0  0  0  0
  -18.9265   56.8486   17.8198 C   0  0  0  0  0  0  0  0  0  0  0  0
  -19.7353   56.3973   16.7667 C   0  0  0  0  0  0  0  0  0  0  0  0
  -20.2152   57.2852   15.7918 C   0  0  0  0  0  0  0  0  0  0  0  0
  -21.0407   56.8424   14.7457 C   0  0  0  0  0  0  0  0  0  0  0  0
  -21.3671   55.4848   14.6707 C   0  0  0  0  0  0  0  0  0  0  0  0
  -20.8918   54.5886   15.6322 C   0  0  0  0  0  0  0  0  0  0  0  0
  -20.0838   55.0301   16.6930 C   0  0  0  0  0  0  0  0  0  0  0  0
  -19.6263   54.1465   17.6883 C   0  0  0  0  0  0  0  0  0  0  0  0
  -21.5956   57.8362   13.7595 C   0  0  0  0  0  0  0  0  0  0  0  0
  -22.7899   57.4722   13.2230 F   0  0  0  0  0  0  0  0  0  0  0  0
  -21.7487   59.0955   14.2631 F   0  0  0  0  0  0  0  0  0  0  0  0
  -20.5921   58.1851   12.2896 P   0  0  0  0  0  0  0  0  0  0  0  0
  -20.3865   57.0714   11.3043 O   0  0  0  0  0  0  0  0  0  0  0  0
  -21.1505   59.5085   11.5620 O   0  0  0  0  0  0  0  0  0  0  0  0
  -19.1904   58.7899   12.8241 O   0  0  0  0  0  0  0  0  0  0  0  0
  -22.0176   59.3205   11.1701 H   0  0  0  0  0  0  0  0  0  0  0  0
  -18.7039   58.1021   13.3049 H   0  0  0  0  0  0  0  0  0  0  0  0
  -18.1839   51.3989   20.6780 C   0  0  0  0  0  0  0  0  0  0  0  0
  -16.8323   51.0737   19.9967 C   0  0  0  0  0  0  0  0  0  0  0  0
  -15.7493   51.8147   20.3612 N   0  0  0  0  0  0  0  0  0  0  0  0
  -16.7323   50.1983   19.1403 O   0  0  0  0  0  0  0  0  0  0  0  0
  -15.8399   52.5139   21.0484 H   0  0  0  0  0  0  0  0  0  0  0  0
  -14.8758   51.6513   19.9375 H   0  0  0  0  0  0  0  0  0  0  0  0
  -19.0491   50.1350   20.8545 C   0  0  0  0  0  0  0  0  0  0  0  0
  -20.3301   50.2237   21.7156 C   0  0  0  0  0  0  0  0  0  0  0  0
  -20.2202   50.8529   23.1244 C   0  0  0  0  0  0  0  0  0  0  0  0
  -19.7138   49.9651   24.3046 N   0  0  0  0  0  0  0  0  0  0  0  0
  -18.1479   50.1415   24.3939 C   0  0  0  0  0  0  0  0  0  0  0  0
  -19.9557   48.4998   24.0089 C   0  0  0  0  0  0  0  0  0  0  0  0
  -20.1917   50.4468   25.6763 C   0  0  0  0  0  0  0  0  0  0  0  0
  -20.8324   49.4976   26.7322 N   0  0  0  0  0  0  0  0  0  0  0  0
  -22.2085   49.0342   26.3398 C   0  0  0  0  0  0  0  0  0  0  0  0
  -21.0281   50.4337   27.9711 C   0  0  0  0  0  0  0  0  0  0  0  0
  -19.8216   48.4114   27.1115 C   0  0  0  0  0  0  0  0  0  0  0  0
  -19.7558   45.9531   27.2600 C   0  0  0  0  0  0  0  0  0  0  0  0
  -20.1629   47.2607   28.0392 N   0  0  0  0  0  0  0  0  0  0  0  0
  -19.3863   47.1847   29.3528 C   0  0  0  0  0  0  0  0  0  0  0  0
  -21.6588   47.0887   28.3272 C   0  0  0  0  0  0  0  0  0  0  0  0
 41 42  1  0
 42 43  1  0
 42 44  1  0
 42 40  1  0
 40 37  1  0
 37 38  1  0
 37 39  1  0
 37 36  1  0
 36 33  1  0
 33 34  1  0
 33 35  1  0
 33 32  1  0
 32 31  1  0
 31 30  1  0
 24 30  1  0
 24  1  1  0
  1  2  1  0
  2  3  2  0
  2  5  1  0
  5  6  2  0
  6  7  1  0
  7  8  2  0
  8  9  1  0
  9 10  2  0
 10 15  1  0
 15 16  1  0
 15 17  1  0
 15 18  1  0
 18 19  2  0
 18 20  1  0
 18 21  1  0
 10 11  1  0
 11 12  2  0
 12 13  1  0
 13 14  2  0
 24 25  1  0
 25 26  1  0
 25 27  2  0
 14  5  1  0
 13  8  1  0
  1  4  1  0
 20 22  1  0
 21 23  1  0
 26 28  1  0
 26 29  1  0
M  CHG 1  33   1
M  CHG 1  37   1
M  CHG 1  42   1
M  END
> <minimizedAffinity>
-6.87400

> <CNNscore>
0.8141126037

> <CNNaffinity>
6.1931300163

> <CNN_VS>
5.0419054031

> <CNNaffinity_variance>
0.1377067566

$$$$



 44 45  0  0  0  0  0  0  0  0999 V2000
  -18.0758   51.9609   19.0944 N   0  0  0  0  0  0  0  0  0  0  0  0
  -18.4806   53.2099   19.5186 C   0  0  0  0  0  0  0  0  0  0  0  0
  -18.5838   53.4962   20.7110 O   0  0  0  0  0  0  0  0  0  0  0  0
  -18.2740   51.6761   18.1731 H   0  0  0  0  0  0  0  0  0  0  0  0
  -18.8762   54.1939   18.4734 C   0  0  0  0  0  0  0  0  0  0  0  0
  -18.4776   55.5240   18.6395 C   0  0  0  0  0  0  0  0  0  0  0  0
  -18.8938   56.4988   17.7323 C   0  0  0  0  0  0  0  0  0  0  0  0
  -19.7208   56.1629   16.6505 C   0  0  0  0  0  0  0  0  0  0  0  0
  -20.1715   57.1431   15.7533 C   0  0  0  0  0  0  0  0  0  0  0  0
  -21.0148   56.8157   14.6793 C   0  0  0  0  0  0  0  0  0  0  0  0
  -21.3892   55.4809   14.4966 C   0  0  0  0  0  0  0  0  0  0  0  0
  -20.9434   54.4937   15.3798 C   0  0  0  0  0  0  0  0  0  0  0  0
  -20.1175   54.8193   16.4684 C   0  0  0  0  0  0  0  0  0  0  0  0
  -19.6889   53.8425   17.3864 C   0  0  0  0  0  0  0  0  0  0  0  0
  -21.5369   57.9050   13.7798 C   0  0  0  0  0  0  0  0  0  0  0  0
  -22.8249   57.7244   13.3857 F   0  0  0  0  0  0  0  0  0  0  0  0
  -21.4525   59.1580   14.3144 F   0  0  0  0  0  0  0  0  0  0  0  0
  -20.6734   58.1561   12.2048 P   0  0  0  0  0  0  0  0  0  0  0  0
  -20.4499   56.9553   11.3321 O   0  0  0  0  0  0  0  0  0  0  0  0
  -21.3878   59.3442   11.3861 O   0  0  0  0  0  0  0  0  0  0  0  0
  -19.2903   58.9175   12.5562 O   0  0  0  0  0  0  0  0  0  0  0  0
  -22.2629   59.0507   11.0879 H   0  0  0  0  0  0  0  0  0  0  0  0
  -18.7165   58.3259   13.0676 H   0  0  0  0  0  0  0  0  0  0  0  0
  -17.3566   51.0504   19.9890 C   0  0  0  0  0  0  0  0  0  0  0  0
  -18.4566   50.2545   20.7327 C   0  0  0  0  0  0  0  0  0  0  0  0
  -19.7481   50.4592   20.3517 N   0  0  0  0  0  0  0  0  0  0  0  0
  -18.1895   49.4821   21.6502 O   0  0  0  0  0  0  0  0  0  0  0  0
  -19.9516   51.0802   19.6154 H   0  0  0  0  0  0  0  0  0  0  0  0
  -20.4781   49.9861   20.8127 H   0  0  0  0  0  0  0  0  0  0  0  0
  -16.4209   51.7807   20.9730 C   0  0  0  0  0  0  0  0  0  0  0  0
  -14.9114   51.8572   20.6477 C   0  0  0  0  0  0  0  0  0  0  0  0
  -14.0732   52.9642   21.3295 C   0  0  0  0  0  0  0  0  0  0  0  0
  -12.5441   53.0421   21.0242 N   0  0  0  0  0  0  0  0  0  0  0  0
  -11.8029   53.3446   22.3843 C   0  0  0  0  0  0  0  0  0  0  0  0
  -12.2435   54.2130   20.1121 C   0  0  0  0  0  0  0  0  0  0  0  0
  -11.9407   51.7027   20.5954 C   0  0  0  0  0  0  0  0  0  0  0  0
  -10.4392   51.5315   20.2176 N   0  0  0  0  0  0  0  0  0  0  0  0
  -10.2355   50.6183   19.0399 C   0  0  0  0  0  0  0  0  0  0  0  0
   -9.8505   50.7777   21.4564 C   0  0  0  0  0  0  0  0  0  0  0  0
   -9.7788   52.9112   20.1421 C   0  0  0  0  0  0  0  0  0  0  0  0
   -7.4003   52.8273   19.5054 C   0  0  0  0  0  0  0  0  0  0  0  0
   -8.8248   53.3045   19.0302 N   0  0  0  0  0  0  0  0  0  0  0  0
   -9.0288   52.6232   17.6779 C   0  0  0  0  0  0  0  0  0  0  0  0
   -8.6745   54.8150   18.8160 C   0  0  0  0  0  0  0  0  0  0  0  0
 41 42  1  0
 42 43  1  0
 42 44  1  0
 42 40  1  0
 40 37  1  0
 37 38  1  0
 37 39  1  0
 37 36  1  0
 36 33  1  0
 33 34  1  0
 33 35  1  0
 33 32  1  0
 32 31  1  0
 31 30  1  0
 24 30  1  0
 24  1  1  0
  1  2  1  0
  2  3  2  0
  2  5  1  0
  5  6  2  0
  6  7  1  0
  7  8  2  0
  8  9  1  0
  9 10  2  0
 10 15  1  0
 15 16  1  0
 15 17  1  0
 15 18  1  0
 18 19  2  0
 18 20  1  0
 18 21  1  0
 10 11  1  0
 11 12  2  0
 12 13  1  0
 13 14  2  0
 24 25  1  0
 25 26  1  0
 25 27  2  0
 14  5  1  0
 13  8  1  0
  1  4  1  0
 20 22  1  0
 21 23  1  0
 26 28  1  0
 26 29  1  0
M  CHG 1  33   1
M  CHG 1  37   1
M  CHG 1  42   1
M  END
> <minimizedAffinity>
-8.67216

> <CNNscore>
0.7496185303

> <CNNaffinity>
6.5358805656

> <CNN_VS>
4.8994174004

> <CNNaffinity_variance>
0.0981804654

$$$$



 44 45  0  0  0  0  0  0  0  0999 V2000
  -18.8983   52.3310   20.0994 N   0  0  0  0  0  0  0  0  0  0  0  0
  -18.4505   53.6330   20.0093 C   0  0  0  0  0  0  0  0  0  0  0  0
  -17.8160   54.1726   20.9153 O   0  0  0  0  0  0  0  0  0  0  0  0
  -19.6255   52.0286   19.5088 H   0  0  0  0  0  0  0  0  0  0  0  0
  -18.8352   54.4079   18.7974 C   0  0  0  0  0  0  0  0  0  0  0  0
  -18.4210   55.7408   18.7117 C   0  0  0  0  0  0  0  0  0  0  0  0
  -18.8263   56.5329   17.6371 C   0  0  0  0  0  0  0  0  0  0  0  0
  -19.6578   56.0096   16.6362 C   0  0  0  0  0  0  0  0  0  0  0  0
  -20.0976   56.8092   15.5702 C   0  0  0  0  0  0  0  0  0  0  0  0
  -20.9453   56.2959   14.5754 C   0  0  0  0  0  0  0  0  0  0  0  0
  -21.3353   54.9549   14.6457 C   0  0  0  0  0  0  0  0  0  0  0  0
  -20.9005   54.1459   15.6993 C   0  0  0  0  0  0  0  0  0  0  0  0
  -20.0702   54.6603   16.7088 C   0  0  0  0  0  0  0  0  0  0  0  0
  -19.6526   53.8682   17.7944 C   0  0  0  0  0  0  0  0  0  0  0  0
  -21.4551   57.2030   13.4866 C   0  0  0  0  0  0  0  0  0  0  0  0
  -21.1669   56.7722   12.2304 F   0  0  0  0  0  0  0  0  0  0  0  0
  -22.8000   57.4304   13.5345 F   0  0  0  0  0  0  0  0  0  0  0  0
  -20.8297   58.9054   13.4736 P   0  0  0  0  0  0  0  0  0  0  0  0
  -21.8106   60.0072   13.1958 O   0  0  0  0  0  0  0  0  0  0  0  0
  -20.0110   59.1853   14.8314 O   0  0  0  0  0  0  0  0  0  0  0  0
  -19.5828   58.9281   12.4437 O   0  0  0  0  0  0  0  0  0  0  0  0
  -20.6258   59.2056   15.5814 H   0  0  0  0  0  0  0  0  0  0  0  0
  -19.9049   58.7702   11.5424 H   0  0  0  0  0  0  0  0  0  0  0  0
  -18.3120   51.3900   21.0571 C   0  0  0  0  0  0  0  0  0  0  0  0
  -16.9705   50.9459   20.4248 C   0  0  0  0  0  0  0  0  0  0  0  0
  -15.8315   51.5299   20.8899 N   0  0  0  0  0  0  0  0  0  0  0  0
  -16.9239   50.1159   19.5199 O   0  0  0  0  0  0  0  0  0  0  0  0
  -15.8796   52.1938   21.6153 H   0  0  0  0  0  0  0  0  0  0  0  0
  -14.9601   51.2882   20.5007 H   0  0  0  0  0  0  0  0  0  0  0  0
  -19.2243   50.1841   21.3581 C   0  0  0  0  0  0  0  0  0  0  0  0
  -20.6651   50.4457   21.8540 C   0  0  0  0  0  0  0  0  0  0  0  0
  -21.7902   50.5626   20.7988 C   0  0  0  0  0  0  0  0  0  0  0  0
  -22.8338   51.7151   20.9401 N   0  0  0  0  0  0  0  0  0  0  0  0
  -22.0749   52.9760   21.5103 C   0  0  0  0  0  0  0  0  0  0  0  0
  -23.8853   51.3563   21.9691 C   0  0  0  0  0  0  0  0  0  0  0  0
  -23.3714   52.2164   19.5979 C   0  0  0  0  0  0  0  0  0  0  0  0
  -24.5460   51.5253   18.8436 N   0  0  0  0  0  0  0  0  0  0  0  0
  -24.5868   50.0384   19.0667 C   0  0  0  0  0  0  0  0  0  0  0  0
  -24.1628   51.7268   17.3396 C   0  0  0  0  0  0  0  0  0  0  0  0
  -25.8407   52.2981   19.1123 C   0  0  0  0  0  0  0  0  0  0  0  0
  -24.5265   54.2834   18.4788 C   0  0  0  0  0  0  0  0  0  0  0  0
  -25.9703   53.7904   18.8728 N   0  0  0  0  0  0  0  0  0  0  0  0
  -26.8575   54.2238   17.7068 C   0  0  0  0  0  0  0  0  0  0  0  0
  -26.3334   54.6121   20.1150 C   0  0  0  0  0  0  0  0  0  0  0  0
 41 42  1  0
 42 43  1  0
 42 44  1  0
 42 40  1  0
 40 37  1  0
 37 38  1  0
 37 39  1  0
 37 36  1  0
 36 33  1  0
 33 34  1  0
 33 35  1  0
 33 32  1  0
 32 31  1  0
 31 30  1  0
 24 30  1  0
 24  1  1  0
  1  2  1  0
  2  3  2  0
  2  5  1  0
  5  6  2  0
  6  7  1  0
  7  8  2  0
  8  9  1  0
  9 10  2  0
 10 15  1  0
 15 16  1  0
 15 17  1  0
 15 18  1  0
 18 19  2  0
 18 20  1  0
 18 21  1  0
 10 11  1  0
 11 12  2  0
 12 13  1  0
 13 14  2  0
 24 25  1  0
 25 26  1  0
 25 27  2  0
 14  5  1  0
 13  8  1  0
  1  4  1  0
 20 22  1  0
 21 23  1  0
 26 28  1  0
 26 29  1  0
M  CHG 1  33   1
M  CHG 1  37   1
M  CHG 1  42   1
M  END
> <minimizedAffinity>
-7.37124

> <CNNscore>
0.7216811180

> <CNNaffinity>
6.6562590599

> <CNN_VS>
4.8036966324

> <CNNaffinity_variance>
0.0170241278

$$$$



 44 45  0  0  0  0  0  0  0  0999 V2000
  -17.9075   51.6948   19.1558 N   0  0  0  0  0  0  0  0  0  0  0  0
  -18.2793   52.9959   19.4256 C   0  0  0  0  0  0  0  0  0  0  0  0
  -18.0470   53.5335   20.5079 O   0  0  0  0  0  0  0  0  0  0  0  0
  -18.3452   51.2105   18.4188 H   0  0  0  0  0  0  0  0  0  0  0  0
  -19.0572   53.7172   18.3808 C   0  0  0  0  0  0  0  0  0  0  0  0
  -20.0483   53.0088   17.6941 C   0  0  0  0  0  0  0  0  0  0  0  0
  -20.7467   53.6151   16.6494 C   0  0  0  0  0  0  0  0  0  0  0  0
  -20.4611   54.9343   16.2687 C   0  0  0  0  0  0  0  0  0  0  0  0
  -21.1351   55.5397   15.1971 C   0  0  0  0  0  0  0  0  0  0  0  0
  -20.8402   56.8537   14.7994 C   0  0  0  0  0  0  0  0  0  0  0  0
  -19.8699   57.5718   15.5052 C   0  0  0  0  0  0  0  0  0  0  0  0
  -19.1944   56.9827   16.5777 C   0  0  0  0  0  0  0  0  0  0  0  0
  -19.4702   55.6611   16.9657 C   0  0  0  0  0  0  0  0  0  0  0  0
  -18.7742   55.0423   18.0208 C   0  0  0  0  0  0  0  0  0  0  0  0
  -21.5326   57.4448   13.5996 C   0  0  0  0  0  0  0  0  0  0  0  0
  -22.1906   56.5319   12.8377 F   0  0  0  0  0  0  0  0  0  0  0  0
  -22.4239   58.4334   13.9011 F   0  0  0  0  0  0  0  0  0  0  0  0
  -20.4898   58.2958   12.3840 P   0  0  0  0  0  0  0  0  0  0  0  0
  -19.1779   58.8513   12.8568 O   0  0  0  0  0  0  0  0  0  0  0  0
  -20.2901   57.3513   11.0955 O   0  0  0  0  0  0  0  0  0  0  0  0
  -21.4173   59.4292   11.6975 O   0  0  0  0  0  0  0  0  0  0  0  0
  -19.7365   56.5914   11.3343 H   0  0  0  0  0  0  0  0  0  0  0  0
  -21.6418   60.1055   12.3556 H   0  0  0  0  0  0  0  0  0  0  0  0
  -16.8739   51.0202   19.9451 C   0  0  0  0  0  0  0  0  0  0  0  0
  -17.6267   49.9552   20.7792 C   0  0  0  0  0  0  0  0  0  0  0  0
  -18.1971   48.9170   20.1072 N   0  0  0  0  0  0  0  0  0  0  0  0
  -17.7331   50.0446   22.0001 O   0  0  0  0  0  0  0  0  0  0  0  0
  -18.1061   48.8545   19.1289 H   0  0  0  0  0  0  0  0  0  0  0  0
  -18.7005   48.2290   20.5997 H   0  0  0  0  0  0  0  0  0  0  0  0
  -16.0727   51.9829   20.8440 C   0  0  0  0  0  0  0  0  0  0  0  0
  -14.5770   52.2209   20.5333 C   0  0  0  0  0  0  0  0  0  0  0  0
  -13.8461   53.3555   21.2892 C   0  0  0  0  0  0  0  0  0  0  0  0
  -12.3215   53.5686   21.0296 N   0  0  0  0  0  0  0  0  0  0  0  0
  -11.7171   52.1807   20.5829 C   0  0  0  0  0  0  0  0  0  0  0  0
  -11.6112   53.9429   22.3135 C   0  0  0  0  0  0  0  0  0  0  0  0
  -12.0296   54.4719   19.8292 C   0  0  0  0  0  0  0  0  0  0  0  0
  -11.6424   55.9738   19.9728 N   0  0  0  0  0  0  0  0  0  0  0  0
  -12.5331   56.7159   20.9311 C   0  0  0  0  0  0  0  0  0  0  0  0
  -11.9562   56.5533   18.5532 C   0  0  0  0  0  0  0  0  0  0  0  0
  -10.1332   56.0841   20.2087 C   0  0  0  0  0  0  0  0  0  0  0  0
   -7.7901   55.3450   20.0252 C   0  0  0  0  0  0  0  0  0  0  0  0
   -9.1076   55.6023   19.2001 N   0  0  0  0  0  0  0  0  0  0  0  0
   -9.3970   54.2702   18.5099 C   0  0  0  0  0  0  0  0  0  0  0  0
   -8.7062   56.6398   18.1452 C   0  0  0  0  0  0  0  0  0  0  0  0
 41 42  1  0
 42 43  1  0
 42 44  1  0
 42 40  1  0
 40 37  1  0
 37 38  1  0
 37 39  1  0
 37 36  1  0
 36 33  1  0
 33 34  1  0
 33 35  1  0
 33 32  1  0
 32 31  1  0
 31 30  1  0
 24 30  1  0
 24  1  1  0
  1  2  1  0
  2  3  2  0
  2  5  1  0
  5  6  2  0
  6  7  1  0
  7  8  2  0
  8  9  1  0
  9 10  2  0
 10 15  1  0
 15 16  1  0
 15 17  1  0
 15 18  1  0
 18 19  2  0
 18 20  1  0
 18 21  1  0
 10 11  1  0
 11 12  2  0
 12 13  1  0
 13 14  2  0
 24 25  1  0
 25 26  1  0
 25 27  2  0
 14  5  1  0
 13  8  1  0
  1  4  1  0
 20 22  1  0
 21 23  1  0
 26 28  1  0
 26 29  1  0
M  CHG 1  33   1
M  CHG 1  37   1
M  CHG 1  42   1
M  END
> <minimizedAffinity>
-8.81049

> <CNNscore>
0.7119290829

> <CNNaffinity>
6.6512069702

> <CNN_VS>
4.7351875305

> <CNNaffinity_variance>
0.0635151938

$$$$



 44 45  0  0  0  0  0  0  0  0999 V2000
  -17.7096   53.7652   20.3383 N   0  0  0  0  0  0  0  0  0  0  0  0
  -18.2499   53.0110   19.3169 C   0  0  0  0  0  0  0  0  0  0  0  0
  -18.0430   51.8023   19.2138 O   0  0  0  0  0  0  0  0  0  0  0  0
  -17.6525   54.7430   20.2384 H   0  0  0  0  0  0  0  0  0  0  0  0
  -19.0371   53.7293   18.2770 C   0  0  0  0  0  0  0  0  0  0  0  0
  -19.9796   52.9991   17.5462 C   0  0  0  0  0  0  0  0  0  0  0  0
  -20.6822   53.6060   16.5047 C   0  0  0  0  0  0  0  0  0  0  0  0
  -20.4491   54.9482   16.1713 C   0  0  0  0  0  0  0  0  0  0  0  0
  -21.1267   55.5562   15.1035 C   0  0  0  0  0  0  0  0  0  0  0  0
  -20.8837   56.8941   14.7532 C   0  0  0  0  0  0  0  0  0  0  0  0
  -19.9628   57.6325   15.5030 C   0  0  0  0  0  0  0  0  0  0  0  0
  -19.2846   57.0408   16.5723 C   0  0  0  0  0  0  0  0  0  0  0  0
  -19.5078   55.6964   16.9130 C   0  0  0  0  0  0  0  0  0  0  0  0
  -18.8073   55.0765   17.9644 C   0  0  0  0  0  0  0  0  0  0  0  0
  -21.5762   57.4911   13.5564 C   0  0  0  0  0  0  0  0  0  0  0  0
  -22.3064   56.5970   12.8393 F   0  0  0  0  0  0  0  0  0  0  0  0
  -22.4013   58.5368   13.8538 F   0  0  0  0  0  0  0  0  0  0  0  0
  -20.5228   58.2479   12.2888 P   0  0  0  0  0  0  0  0  0  0  0  0
  -19.2346   58.8759   12.7354 O   0  0  0  0  0  0  0  0  0  0  0  0
  -20.2724   57.1912   11.1001 O   0  0  0  0  0  0  0  0  0  0  0  0
  -21.4574   59.2897   11.4779 O   0  0  0  0  0  0  0  0  0  0  0  0
  -19.7087   56.4703   11.4218 H   0  0  0  0  0  0  0  0  0  0  0  0
  -21.7119   60.0195   12.0640 H   0  0  0  0  0  0  0  0  0  0  0  0
  -17.2193   53.1387   21.5686 C   0  0  0  0  0  0  0  0  0  0  0  0
  -18.2481   53.5217   22.6602 C   0  0  0  0  0  0  0  0  0  0  0  0
  -19.3418   52.7226   22.8025 N   0  0  0  0  0  0  0  0  0  0  0  0
  -18.1066   54.5201   23.3624 O   0  0  0  0  0  0  0  0  0  0  0  0
  -19.4458   51.9249   22.2350 H   0  0  0  0  0  0  0  0  0  0  0  0
  -20.0284   52.9428   23.4728 H   0  0  0  0  0  0  0  0  0  0  0  0
  -15.7940   53.5858   21.9502 C   0  0  0  0  0  0  0  0  0  0  0  0
  -15.2090   54.8545   21.2879 C   0  0  0  0  0  0  0  0  0  0  0  0
  -13.6992   54.8723   20.9519 C   0  0  0  0  0  0  0  0  0  0  0  0
  -12.6698   54.7492   22.1192 N   0  0  0  0  0  0  0  0  0  0  0  0
  -11.3333   55.4447   21.6493 C   0  0  0  0  0  0  0  0  0  0  0  0
  -12.3223   53.2968   22.3701 C   0  0  0  0  0  0  0  0  0  0  0  0
  -13.0584   55.5563   23.3600 C   0  0  0  0  0  0  0  0  0  0  0  0
  -12.6856   55.1178   24.8075 N   0  0  0  0  0  0  0  0  0  0  0  0
  -11.3533   54.4235   24.8808 C   0  0  0  0  0  0  0  0  0  0  0  0
  -13.7603   54.0269   25.1303 C   0  0  0  0  0  0  0  0  0  0  0  0
  -12.9021   56.2960   25.7618 C   0  0  0  0  0  0  0  0  0  0  0  0
  -12.8718   57.6034   27.8497 C   0  0  0  0  0  0  0  0  0  0  0  0
  -12.1464   56.4428   27.0689 N   0  0  0  0  0  0  0  0  0  0  0  0
  -12.1883   55.2505   28.0235 C   0  0  0  0  0  0  0  0  0  0  0  0
  -10.6973   56.9217   26.9239 C   0  0  0  0  0  0  0  0  0  0  0  0
 41 42  1  0
 42 43  1  0
 42 44  1  0
 42 40  1  0
 40 37  1  0
 37 38  1  0
 37 39  1  0
 37 36  1  0
 36 33  1  0
 33 34  1  0
 33 35  1  0
 33 32  1  0
 32 31  1  0
 31 30  1  0
 24 30  1  0
 24  1  1  0
  1  2  1  0
  2  3  2  0
  2  5  1  0
  5  6  2  0
  6  7  1  0
  7  8  2  0
  8  9  1  0
  9 10  2  0
 10 15  1  0
 15 16  1  0
 15 17  1  0
 15 18  1  0
 18 19  2  0
 18 20  1  0
 18 21  1  0
 10 11  1  0
 11 12  2  0
 12 13  1  0
 13 14  2  0
 24 25  1  0
 25 26  1  0
 25 27  2  0
 14  5  1  0
 13  8  1  0
  1  4  1  0
 20 22  1  0
 21 23  1  0
 26 28  1  0
 26 29  1  0
M  CHG 1  33   1
M  CHG 1  37   1
M  CHG 1  42   1
M  END
> <minimizedAffinity>
-6.88887

> <CNNscore>
0.6889421344

> <CNNaffinity>
6.0715584755

> <CNN_VS>
4.1829524040

> <CNNaffinity_variance>
0.0667641386

$$$$



 44 45  0  0  0  0  0  0  0  0999 V2000
  -18.5742   53.5959   20.7965 N   0  0  0  0  0  0  0  0  0  0  0  0
  -18.4765   53.1851   19.4829 C   0  0  0  0  0  0  0  0  0  0  0  0
  -18.0011   52.0938   19.1706 O   0  0  0  0  0  0  0  0  0  0  0  0
  -18.6840   54.5538   20.9960 H   0  0  0  0  0  0  0  0  0  0  0  0
  -18.8939   54.1513   18.4297 C   0  0  0  0  0  0  0  0  0  0  0  0
  -18.5296   55.4922   18.5874 C   0  0  0  0  0  0  0  0  0  0  0  0
  -18.9678   56.4498   17.6722 C   0  0  0  0  0  0  0  0  0  0  0  0
  -19.7828   56.0854   16.5906 C   0  0  0  0  0  0  0  0  0  0  0  0
  -20.2557   57.0475   15.6852 C   0  0  0  0  0  0  0  0  0  0  0  0
  -21.0874   56.6913   14.6113 C   0  0  0  0  0  0  0  0  0  0  0  0
  -21.4273   55.3461   14.4370 C   0  0  0  0  0  0  0  0  0  0  0  0
  -20.9591   54.3768   15.3285 C   0  0  0  0  0  0  0  0  0  0  0  0
  -20.1448   54.7309   16.4170 C   0  0  0  0  0  0  0  0  0  0  0  0
  -19.6943   53.7717   17.3431 C   0  0  0  0  0  0  0  0  0  0  0  0
  -21.6342   57.7606   13.7026 C   0  0  0  0  0  0  0  0  0  0  0  0
  -22.7785   57.4063   13.0608 F   0  0  0  0  0  0  0  0  0  0  0  0
  -21.8749   58.9514   14.3246 F   0  0  0  0  0  0  0  0  0  0  0  0
  -20.5694   58.3060   12.3395 P   0  0  0  0  0  0  0  0  0  0  0  0
  -19.2212   58.8664   12.6882 O   0  0  0  0  0  0  0  0  0  0  0  0
  -20.4441   57.1249   11.2526 O   0  0  0  0  0  0  0  0  0  0  0  0
  -21.4470   59.3392   11.4571 O   0  0  0  0  0  0  0  0  0  0  0  0
  -19.9278   56.3941   11.6273 H   0  0  0  0  0  0  0  0  0  0  0  0
  -21.6229   60.1394   11.9763 H   0  0  0  0  0  0  0  0  0  0  0  0
  -18.5179   52.6340   21.9002 C   0  0  0  0  0  0  0  0  0  0  0  0
  -17.2572   51.7767   21.6310 C   0  0  0  0  0  0  0  0  0  0  0  0
  -16.1009   52.4329   21.3360 N   0  0  0  0  0  0  0  0  0  0  0  0
  -17.2912   50.5487   21.6561 O   0  0  0  0  0  0  0  0  0  0  0  0
  -16.0841   53.4171   21.3185 H   0  0  0  0  0  0  0  0  0  0  0  0
  -15.2817   51.9231   21.1402 H   0  0  0  0  0  0  0  0  0  0  0  0
  -19.7846   51.7620   22.0096 C   0  0  0  0  0  0  0  0  0  0  0  0
  -20.1074   50.7709   20.8677 C   0  0  0  0  0  0  0  0  0  0  0  0
  -21.4521   50.0084   20.9216 C   0  0  0  0  0  0  0  0  0  0  0  0
  -21.4352   48.4800   21.2397 N   0  0  0  0  0  0  0  0  0  0  0  0
  -19.9411   47.9860   21.1186 C   0  0  0  0  0  0  0  0  0  0  0  0
  -22.2182   47.7115   20.1959 C   0  0  0  0  0  0  0  0  0  0  0  0
  -21.7859   48.1578   22.6941 C   0  0  0  0  0  0  0  0  0  0  0  0
  -21.1870   46.9415   23.4611 N   0  0  0  0  0  0  0  0  0  0  0  0
  -19.7042   47.0650   23.6817 C   0  0  0  0  0  0  0  0  0  0  0  0
  -21.3773   45.7622   22.4500 C   0  0  0  0  0  0  0  0  0  0  0  0
  -22.0456   46.6529   24.6959 C   0  0  0  0  0  0  0  0  0  0  0  0
  -22.7093   45.6119   26.8280 C   0  0  0  0  0  0  0  0  0  0  0  0
  -21.9651   45.3475   25.4645 N   0  0  0  0  0  0  0  0  0  0  0  0
  -22.6889   44.1472   24.8563 C   0  0  0  0  0  0  0  0  0  0  0  0
  -20.5483   44.9279   25.8728 C   0  0  0  0  0  0  0  0  0  0  0  0
 41 42  1  0
 42 43  1  0
 42 44  1  0
 42 40  1  0
 40 37  1  0
 37 38  1  0
 37 39  1  0
 37 36  1  0
 36 33  1  0
 33 34  1  0
 33 35  1  0
 33 32  1  0
 32 31  1  0
 31 30  1  0
 24 30  1  0
 24  1  1  0
  1  2  1  0
  2  3  2  0
  2  5  1  0
  5  6  2  0
  6  7  1  0
  7  8  2  0
  8  9  1  0
  9 10  2  0
 10 15  1  0
 15 16  1  0
 15 17  1  0
 15 18  1  0
 18 19  2  0
 18 20  1  0
 18 21  1  0
 10 11  1  0
 11 12  2  0
 12 13  1  0
 13 14  2  0
 24 25  1  0
 25 26  1  0
 25 27  2  0
 14  5  1  0
 13  8  1  0
  1  4  1  0
 20 22  1  0
 21 23  1  0
 26 28  1  0
 26 29  1  0
M  CHG 1  33   1
M  CHG 1  37   1
M  CHG 1  42   1
M  END
> <minimizedAffinity>
-7.19728

> <CNNscore>
0.6872050762

> <CNNaffinity>
6.1253609657

> <CNN_VS>
4.2093791962

> <CNNaffinity_variance>
0.1227389798

$$$$



 44 45  0  0  0  0  0  0  0  0999 V2000
  -18.8279   52.3842   19.8631 N   0  0  0  0  0  0  0  0  0  0  0  0
  -18.3408   53.6744   19.8188 C   0  0  0  0  0  0  0  0  0  0  0  0
  -17.6210   54.1346   20.7045 O   0  0  0  0  0  0  0  0  0  0  0  0
  -19.6079   52.1434   19.3129 H   0  0  0  0  0  0  0  0  0  0  0  0
  -18.7866   54.5370   18.6899 C   0  0  0  0  0  0  0  0  0  0  0  0
  -18.4262   55.8879   18.7139 C   0  0  0  0  0  0  0  0  0  0  0  0
  -18.8896   56.7546   17.7237 C   0  0  0  0  0  0  0  0  0  0  0  0
  -19.7264   56.2884   16.6993 C   0  0  0  0  0  0  0  0  0  0  0  0
  -20.2243   57.1604   15.7192 C   0  0  0  0  0  0  0  0  0  0  0  0
  -21.0776   56.7029   14.7021 C   0  0  0  0  0  0  0  0  0  0  0  0
  -21.4139   55.3462   14.6614 C   0  0  0  0  0  0  0  0  0  0  0  0
  -20.9209   54.4657   15.6284 C   0  0  0  0  0  0  0  0  0  0  0  0
  -20.0848   54.9224   16.6606 C   0  0  0  0  0  0  0  0  0  0  0  0
  -19.6087   54.0551   17.6616 C   0  0  0  0  0  0  0  0  0  0  0  0
  -21.6501   57.6811   13.7104 C   0  0  0  0  0  0  0  0  0  0  0  0
  -22.7930   57.2540   13.1118 F   0  0  0  0  0  0  0  0  0  0  0  0
  -21.9068   58.9166   14.2304 F   0  0  0  0  0  0  0  0  0  0  0  0
  -20.6057   58.1256   12.2958 P   0  0  0  0  0  0  0  0  0  0  0  0
  -20.3504   57.0715   11.2581 O   0  0  0  0  0  0  0  0  0  0  0  0
  -21.1617   59.4792   11.6243 O   0  0  0  0  0  0  0  0  0  0  0  0
  -19.2319   58.7199   12.9088 O   0  0  0  0  0  0  0  0  0  0  0  0
  -22.0127   59.3008   11.1942 H   0  0  0  0  0  0  0  0  0  0  0  0
  -18.7501   58.0135   13.3668 H   0  0  0  0  0  0  0  0  0  0  0  0
  -18.2064   51.3657   20.7134 C   0  0  0  0  0  0  0  0  0  0  0  0
  -16.9336   50.9199   19.9532 C   0  0  0  0  0  0  0  0  0  0  0  0
  -15.7720   51.5736   20.2328 N   0  0  0  0  0  0  0  0  0  0  0  0
  -16.9620   50.0271   19.1095 O   0  0  0  0  0  0  0  0  0  0  0  0
  -15.7598   52.2876   20.9106 H   0  0  0  0  0  0  0  0  0  0  0  0
  -14.9445   51.3323   19.7571 H   0  0  0  0  0  0  0  0  0  0  0  0
  -19.1373   50.1731   21.0099 C   0  0  0  0  0  0  0  0  0  0  0  0
  -20.4017   50.4105   21.8675 C   0  0  0  0  0  0  0  0  0  0  0  0
  -20.2499   51.2024   23.1876 C   0  0  0  0  0  0  0  0  0  0  0  0
  -19.8709   50.4263   24.4882 N   0  0  0  0  0  0  0  0  0  0  0  0
  -18.3035   50.5118   24.6527 C   0  0  0  0  0  0  0  0  0  0  0  0
  -20.1989   48.9550   24.3435 C   0  0  0  0  0  0  0  0  0  0  0  0
  -20.3866   51.0925   25.7658 C   0  0  0  0  0  0  0  0  0  0  0  0
  -20.1984   52.6093   26.0662 N   0  0  0  0  0  0  0  0  0  0  0  0
  -18.8162   52.9381   26.5600 C   0  0  0  0  0  0  0  0  0  0  0  0
  -21.1590   52.8476   27.2786 C   0  0  0  0  0  0  0  0  0  0  0  0
  -20.7184   53.4258   24.8794 C   0  0  0  0  0  0  0  0  0  0  0  0
  -19.9291   55.2866   23.4709 C   0  0  0  0  0  0  0  0  0  0  0  0
  -20.6461   54.9402   24.8306 N   0  0  0  0  0  0  0  0  0  0  0  0
  -21.9764   55.6891   24.7672 C   0  0  0  0  0  0  0  0  0  0  0  0
  -19.7601   55.5769   25.9076 C   0  0  0  0  0  0  0  0  0  0  0  0
 41 42  1  0
 42 43  1  0
 42 44  1  0
 42 40  1  0
 40 37  1  0
 37 38  1  0
 37 39  1  0
 37 36  1  0
 36 33  1  0
 33 34  1  0
 33 35  1  0
 33 32  1  0
 32 31  1  0
 31 30  1  0
 24 30  1  0
 24  1  1  0
  1  2  1  0
  2  3  2  0
  2  5  1  0
  5  6  2  0
  6  7  1  0
  7  8  2  0
  8  9  1  0
  9 10  2  0
 10 15  1  0
 15 16  1  0
 15 17  1  0
 15 18  1  0
 18 19  2  0
 18 20  1  0
 18 21  1  0
 10 11  1  0
 11 12  2  0
 12 13  1  0
 13 14  2  0
 24 25  1  0
 25 26  1  0
 25 27  2  0
 14  5  1  0
 13  8  1  0
  1  4  1  0
 20 22  1  0
 21 23  1  0
 26 28  1  0
 26 29  1  0
M  CHG 1  33   1
M  CHG 1  37   1
M  CHG 1  42   1
M  END
> <minimizedAffinity>
-6.94396

> <CNNscore>
0.6497862339

> <CNNaffinity>
6.2257876396

> <CNN_VS>
4.0454311371

> <CNNaffinity_variance>
0.1217375398

$$$$



 44 45  0  0  0  0  0  0  0  0999 V2000
  -17.7112   52.6563   19.5353 N   0  0  0  0  0  0  0  0  0  0  0  0
  -19.0730   52.5174   19.3619 C   0  0  0  0  0  0  0  0  0  0  0  0
  -19.7421   51.7290   20.0289 O   0  0  0  0  0  0  0  0  0  0  0  0
  -17.1724   53.0642   18.8193 H   0  0  0  0  0  0  0  0  0  0  0  0
  -19.7083   53.3028   18.2680 C   0  0  0  0  0  0  0  0  0  0  0  0
  -20.7803   52.7239   17.5814 C   0  0  0  0  0  0  0  0  0  0  0  0
  -21.3546   53.3837   16.4945 C   0  0  0  0  0  0  0  0  0  0  0  0
  -20.8628   54.6269   16.0709 C   0  0  0  0  0  0  0  0  0  0  0  0
  -21.4126   55.2808   14.9578 C   0  0  0  0  0  0  0  0  0  0  0  0
  -20.9120   56.5168   14.5177 C   0  0  0  0  0  0  0  0  0  0  0  0
  -19.8594   57.1092   15.2224 C   0  0  0  0  0  0  0  0  0  0  0  0
  -19.3058   56.4711   16.3359 C   0  0  0  0  0  0  0  0  0  0  0  0
  -19.7884   55.2244   16.7670 C   0  0  0  0  0  0  0  0  0  0  0  0
  -19.2186   54.5530   17.8648 C   0  0  0  0  0  0  0  0  0  0  0  0
  -21.4792   57.1540   13.2766 C   0  0  0  0  0  0  0  0  0  0  0  0
  -21.2099   56.4700   12.1335 F   0  0  0  0  0  0  0  0  0  0  0  0
  -22.8291   57.3509   13.3180 F   0  0  0  0  0  0  0  0  0  0  0  0
  -20.9102   58.8293   12.8779 P   0  0  0  0  0  0  0  0  0  0  0  0
  -21.7548   59.6504   11.9475 O   0  0  0  0  0  0  0  0  0  0  0  0
  -20.6026   59.6287   14.2412 O   0  0  0  0  0  0  0  0  0  0  0  0
  -19.3890   58.6831   12.3481 O   0  0  0  0  0  0  0  0  0  0  0  0
  -21.4349   59.8073   14.7061 H   0  0  0  0  0  0  0  0  0  0  0  0
  -19.3853   58.2070   11.5030 H   0  0  0  0  0  0  0  0  0  0  0  0
  -17.0517   52.2085   20.7645 C   0  0  0  0  0  0  0  0  0  0  0  0
  -16.5999   53.5042   21.4812 C   0  0  0  0  0  0  0  0  0  0  0  0
  -17.2120   54.6673   21.1241 N   0  0  0  0  0  0  0  0  0  0  0  0
  -15.7069   53.5003   22.3253 O   0  0  0  0  0  0  0  0  0  0  0  0
  -17.9264   54.6597   20.4468 H   0  0  0  0  0  0  0  0  0  0  0  0
  -16.9400   55.5155   21.5433 H   0  0  0  0  0  0  0  0  0  0  0  0
  -15.8642   51.2602   20.5045 C   0  0  0  0  0  0  0  0  0  0  0  0
  -14.5004   51.8674   20.1025 C   0  0  0  0  0  0  0  0  0  0  0  0
  -13.2152   51.1931   20.6378 C   0  0  0  0  0  0  0  0  0  0  0  0
  -11.8949   52.0251   20.6825 N   0  0  0  0  0  0  0  0  0  0  0  0
  -11.2932   51.8838   22.1347 C   0  0  0  0  0  0  0  0  0  0  0  0
  -12.1885   53.4983   20.4905 C   0  0  0  0  0  0  0  0  0  0  0  0
  -10.7864   51.4544   19.7951 C   0  0  0  0  0  0  0  0  0  0  0  0
   -9.3736   52.1009   19.6821 N   0  0  0  0  0  0  0  0  0  0  0  0
   -9.2484   53.3698   20.4800 C   0  0  0  0  0  0  0  0  0  0  0  0
   -9.3032   52.5270   18.1778 C   0  0  0  0  0  0  0  0  0  0  0  0
   -8.3082   51.0275   19.9230 C   0  0  0  0  0  0  0  0  0  0  0  0
   -7.2860   48.7898   19.7889 C   0  0  0  0  0  0  0  0  0  0  0  0
   -8.0685   49.8789   18.9615 N   0  0  0  0  0  0  0  0  0  0  0  0
   -9.3064   49.1512   18.4395 C   0  0  0  0  0  0  0  0  0  0  0  0
   -7.1433   50.2080   17.7843 C   0  0  0  0  0  0  0  0  0  0  0  0
 41 42  1  0
 42 43  1  0
 42 44  1  0
 42 40  1  0
 40 37  1  0
 37 38  1  0
 37 39  1  0
 37 36  1  0
 36 33  1  0
 33 34  1  0
 33 35  1  0
 33 32  1  0
 32 31  1  0
 31 30  1  0
 24 30  1  0
 24  1  1  0
  1  2  1  0
  2  3  2  0
  2  5  1  0
  5  6  2  0
  6  7  1  0
  7  8  2  0
  8  9  1  0
  9 10  2  0
 10 15  1  0
 15 16  1  0
 15 17  1  0
 15 18  1  0
 18 19  2  0
 18 20  1  0
 18 21  1  0
 10 11  1  0
 11 12  2  0
 12 13  1  0
 13 14  2  0
 24 25  1  0
 25 26  1  0
 25 27  2  0
 14  5  1  0
 13  8  1  0
  1  4  1  0
 20 22  1  0
 21 23  1  0
 26 28  1  0
 26 29  1  0
M  CHG 1  33   1
M  CHG 1  37   1
M  CHG 1  42   1
M  END
> <minimizedAffinity>
-7.82555

> <CNNscore>
0.6483659148

> <CNNaffinity>
6.5050964355

> <CNN_VS>
4.2176828384

> <CNNaffinity_variance>
0.0096035814

$$$$
