


 50 53  0  0  0  0  0  0  0  0999 V2000
   -6.5979   25.1463   -4.2983 C   0  0  0  0  0  0  0  0  0  0  0  0
   -7.5258   27.3471   -4.7637 N   0  0  0  0  0  0  0  0  0  0  0  0
   -7.7487   25.9885   -4.8399 C   0  0  0  0  0  0  0  0  0  0  0  0
   -8.7566   25.4989   -5.3442 O   0  0  0  0  0  0  0  0  0  0  0  0
   -6.7927   27.6964   -4.2072 H   0  0  0  0  0  0  0  0  0  0  0  0
   -8.3796   28.2664   -5.5102 C   0  0  0  0  0  0  0  0  0  0  0  0
   -8.4922   29.6003   -4.7846 C   0  0  0  0  0  0  0  0  0  0  0  0
   -8.6351   28.6613   -7.9264 N   0  0  0  0  0  0  0  0  0  0  0  0
   -7.7359   28.4790   -6.8951 C   0  0  0  0  0  0  0  0  0  0  0  0
   -6.5159   28.5187   -7.0540 O   0  0  0  0  0  0  0  0  0  0  0  0
   -9.5914   28.4736   -7.7873 H   0  0  0  0  0  0  0  0  0  0  0  0
   -8.0184   27.9777  -10.2023 C   0  0  0  0  0  0  0  0  0  0  0  0
   -8.1628   29.1325   -9.2218 C   0  0  0  0  0  0  0  0  0  0  0  0
   -9.1887   30.1490   -9.7553 C   0  0  0  0  0  0  0  0  0  0  0  0
   -8.7466   31.4354   -9.8639 N   0  0  0  0  0  0  0  0  0  0  0  0
  -10.3176   29.8403  -10.1265 O   0  0  0  0  0  0  0  0  0  0  0  0
   -7.8394   31.6712   -9.5629 H   0  0  0  0  0  0  0  0  0  0  0  0
   -9.3348   32.1277  -10.2433 H   0  0  0  0  0  0  0  0  0  0  0  0
   -6.7050   23.7055   -4.8252 C   0  0  0  0  0  0  0  0  0  0  0  0
   -5.4979   23.1983   -5.5264 C   0  0  0  0  0  0  0  0  0  0  0  0
   -4.1566   23.4898   -5.4963 C   0  0  0  0  0  0  0  0  0  0  0  0
   -3.5653   22.6098   -6.4436 C   0  0  0  0  0  0  0  0  0  0  0  0
   -4.5072   21.8173   -6.9820 N   0  0  0  0  0  0  0  0  0  0  0  0
   -5.7054   22.1846   -6.4081 O   0  0  0  0  0  0  0  0  0  0  0  0
   -2.1586   22.5116   -6.8394 C   0  0  0  0  0  0  0  0  0  0  0  0
   -1.1933   23.3706   -6.2966 C   0  0  0  0  0  0  0  0  0  0  0  0
    0.1486   23.2729   -6.6880 C   0  0  0  0  0  0  0  0  0  0  0  0
    0.5651   22.3170   -7.6280 C   0  0  0  0  0  0  0  0  0  0  0  0
   -0.4054   21.4598   -8.1672 C   0  0  0  0  0  0  0  0  0  0  0  0
   -1.7481   21.5571   -7.7812 C   0  0  0  0  0  0  0  0  0  0  0  0
    1.9745   22.2188   -8.0349 C   0  0  0  0  0  0  0  0  0  0  0  0
    2.7574   23.3721   -8.2076 C   0  0  0  0  0  0  0  0  0  0  0  0
    4.0970   23.2736   -8.5899 C   0  0  0  0  0  0  0  0  0  0  0  0
    5.0292   24.7048   -8.7986 Cl  0  0  0  0  0  0  0  0  0  0  0  0
    4.6864   22.0314   -8.8054 C   0  0  0  0  0  0  0  0  0  0  0  0
    3.9200   20.8831   -8.6367 C   0  0  0  0  0  0  0  0  0  0  0  0
    4.6323   19.3370   -8.8926 Cl  0  0  0  0  0  0  0  0  0  0  0  0
    2.5780   20.9700   -8.2576 C   0  0  0  0  0  0  0  0  0  0  0  0
   -6.5148   25.2436   -2.7711 C   0  0  0  0  0  0  0  0  0  0  0  0
   -8.1484   25.2045   -2.0064 P   0  0  0  0  0  0  0  0  0  0  0  0
   -9.2594   24.9316   -2.9760 O   0  0  0  0  0  0  0  0  0  0  0  0
   -8.0179   23.9561   -0.9861 O   0  0  0  0  0  0  0  0  0  0  0  0
   -7.9025   23.1362   -1.4914 H   0  0  0  0  0  0  0  0  0  0  0  0
   -8.3521   26.6219   -0.9682 C   0  0  0  0  0  0  0  0  0  0  0  0
   -8.9417   26.5095    0.2992 C   0  0  0  0  0  0  0  0  0  0  0  0
   -9.1023   27.6346    1.1122 C   0  0  0  0  0  0  0  0  0  0  0  0
   -8.6645   28.8782    0.6634 C   0  0  0  0  0  0  0  0  0  0  0  0
   -8.8805   30.4015    1.7626 Br  0  0  0  0  0  0  0  0  0  0  0  0
   -8.0710   29.0070   -0.5900 C   0  0  0  0  0  0  0  0  0  0  0  0
   -7.9183   27.8813   -1.4036 C   0  0  0  0  0  0  0  0  0  0  0  0
 13 12  1  0
 13  8  1  0
  8  9  1  0
  9 10  2  0
  9  6  1  0
  6  7  1  0
  6  2  1  0
  2  3  1  0
  3  4  2  0
  3  1  1  0
  1 19  1  0
 19 20  1  0
 20 21  2  0
 21 22  1  0
 22 25  1  0
 25 26  2  0
 26 27  1  0
 27 28  2  0
 28 31  1  0
 31 32  2  0
 32 33  1  0
 33 34  1  0
 33 35  2  0
 35 36  1  0
 36 37  1  0
 36 38  2  0
 28 29  1  0
 29 30  2  0
 22 23  2  0
 23 24  1  0
  1 39  1  0
 39 40  1  0
 40 41  2  0
 40 42  1  0
 40 44  1  0
 44 45  2  0
 45 46  1  0
 46 47  2  0
 47 48  1  0
 47 49  1  0
 49 50  2  0
 13 14  1  0
 14 15  1  0
 14 16  2  0
 24 20  1  0
 50 44  1  0
 30 25  1  0
 38 31  1  0
  8 11  1  0
  2  5  1  0
 42 43  1  0
 15 17  1  0
 15 18  1  0
M  END
> <minimizedAffinity>
-11.01141

> <CNNscore>
0.8602069020

> <CNNaffinity>
8.3622083664

> <CNN_VS>
7.1932291985

> <CNNaffinity_variance>
0.1549657732

$$$$



 50 53  0  0  0  0  0  0  0  0999 V2000
   -6.9443   25.1279   -4.0854 C   0  0  0  0  0  0  0  0  0  0  0  0
   -7.6133   27.3993   -4.6462 N   0  0  0  0  0  0  0  0  0  0  0  0
   -8.0122   26.0798   -4.6150 C   0  0  0  0  0  0  0  0  0  0  0  0
   -9.1060   25.6973   -5.0240 O   0  0  0  0  0  0  0  0  0  0  0  0
   -6.8058   27.6822   -4.1593 H   0  0  0  0  0  0  0  0  0  0  0  0
   -8.3913   28.3759   -5.4027 C   0  0  0  0  0  0  0  0  0  0  0  0
   -8.3505   29.7364   -4.7204 C   0  0  0  0  0  0  0  0  0  0  0  0
   -8.6652   28.7671   -7.8175 N   0  0  0  0  0  0  0  0  0  0  0  0
   -7.7677   28.4790   -6.8092 C   0  0  0  0  0  0  0  0  0  0  0  0
   -6.5591   28.3501   -7.0036 O   0  0  0  0  0  0  0  0  0  0  0  0
   -9.6335   28.7134   -7.6477 H   0  0  0  0  0  0  0  0  0  0  0  0
   -7.6744   27.9376   -9.9049 C   0  0  0  0  0  0  0  0  0  0  0  0
   -8.1735   29.1512   -9.1343 C   0  0  0  0  0  0  0  0  0  0  0  0
   -9.3358   29.8147   -9.8954 C   0  0  0  0  0  0  0  0  0  0  0  0
   -9.9292   29.0480  -10.8558 N   0  0  0  0  0  0  0  0  0  0  0  0
   -9.7642   30.9353   -9.6340 O   0  0  0  0  0  0  0  0  0  0  0  0
   -9.5769   28.1510  -11.0568 H   0  0  0  0  0  0  0  0  0  0  0  0
  -10.7096   29.3920  -11.3476 H   0  0  0  0  0  0  0  0  0  0  0  0
   -7.0962   23.7460   -4.7429 C   0  0  0  0  0  0  0  0  0  0  0  0
   -5.8859   23.2427   -5.4415 C   0  0  0  0  0  0  0  0  0  0  0  0
   -4.5449   23.5343   -5.4039 C   0  0  0  0  0  0  0  0  0  0  0  0
   -3.9493   22.6595   -6.3533 C   0  0  0  0  0  0  0  0  0  0  0  0
   -4.8887   21.8697   -6.9001 N   0  0  0  0  0  0  0  0  0  0  0  0
   -6.0895   22.2338   -6.3295 O   0  0  0  0  0  0  0  0  0  0  0  0
   -2.5408   22.5636   -6.7435 C   0  0  0  0  0  0  0  0  0  0  0  0
   -2.1151   21.6201   -7.6883 C   0  0  0  0  0  0  0  0  0  0  0  0
   -0.7639   21.5320   -8.0488 C   0  0  0  0  0  0  0  0  0  0  0  0
    0.1982   22.3814   -7.4799 C   0  0  0  0  0  0  0  0  0  0  0  0
   -0.2340   23.3240   -6.5354 C   0  0  0  0  0  0  0  0  0  0  0  0
   -1.5830   23.4123   -6.1699 C   0  0  0  0  0  0  0  0  0  0  0  0
    1.6147   22.2847   -7.8619 C   0  0  0  0  0  0  0  0  0  0  0  0
    2.2260   21.0349   -8.0548 C   0  0  0  0  0  0  0  0  0  0  0  0
    3.5706   20.9481   -8.4221 C   0  0  0  0  0  0  0  0  0  0  0  0
    4.2930   19.4026   -8.6459 Cl  0  0  0  0  0  0  0  0  0  0  0  0
    4.3335   22.0972   -8.6076 C   0  0  0  0  0  0  0  0  0  0  0  0
    3.7376   23.3399   -8.4195 C   0  0  0  0  0  0  0  0  0  0  0  0
    4.6628   24.7731   -8.6502 Cl  0  0  0  0  0  0  0  0  0  0  0  0
    2.3941   23.4384   -8.0490 C   0  0  0  0  0  0  0  0  0  0  0  0
   -6.9508   25.0899   -2.5532 C   0  0  0  0  0  0  0  0  0  0  0  0
   -8.4134   25.8939   -1.8683 P   0  0  0  0  0  0  0  0  0  0  0  0
   -8.4125   27.3845   -2.0331 O   0  0  0  0  0  0  0  0  0  0  0  0
   -9.6018   25.2630   -2.7663 O   0  0  0  0  0  0  0  0  0  0  0  0
   -9.5013   25.5540   -3.6861 H   0  0  0  0  0  0  0  0  0  0  0  0
   -8.7105   25.2919   -0.2319 C   0  0  0  0  0  0  0  0  0  0  0  0
   -9.2664   24.0221   -0.0198 C   0  0  0  0  0  0  0  0  0  0  0  0
   -9.5013   23.5549    1.2761 C   0  0  0  0  0  0  0  0  0  0  0  0
   -9.1720   24.3543    2.3679 C   0  0  0  0  0  0  0  0  0  0  0  0
   -9.4886   23.7235    4.1220 Br  0  0  0  0  0  0  0  0  0  0  0  0
   -8.6132   25.6156    2.1757 C   0  0  0  0  0  0  0  0  0  0  0  0
   -8.3862   26.0829    0.8786 C   0  0  0  0  0  0  0  0  0  0  0  0
 13 12  1  0
 13  8  1  0
  8  9  1  0
  9 10  2  0
  9  6  1  0
  6  7  1  0
  6  2  1  0
  2  3  1  0
  3  4  2  0
  3  1  1  0
  1 19  1  0
 19 20  1  0
 20 21  2  0
 21 22  1  0
 22 25  1  0
 25 26  2  0
 26 27  1  0
 27 28  2  0
 28 31  1  0
 31 32  2  0
 32 33  1  0
 33 34  1  0
 33 35  2  0
 35 36  1  0
 36 37  1  0
 36 38  2  0
 28 29  1  0
 29 30  2  0
 22 23  2  0
 23 24  1  0
  1 39  1  0
 39 40  1  0
 40 41  2  0
 40 42  1  0
 40 44  1  0
 44 45  2  0
 45 46  1  0
 46 47  2  0
 47 48  1  0
 47 49  1  0
 49 50  2  0
 13 14  1  0
 14 15  1  0
 14 16  2  0
 24 20  1  0
 50 44  1  0
 30 25  1  0
 38 31  1  0
  8 11  1  0
  2  5  1  0
 42 43  1  0
 15 17  1  0
 15 18  1  0
M  END
> <minimizedAffinity>
-11.31279

> <CNNscore>
0.8290067911

> <CNNaffinity>
8.1879472733

> <CNN_VS>
6.7878637314

> <CNNaffinity_variance>
0.6364957690

$$$$



 50 53  0  0  0  0  0  0  0  0999 V2000
   -8.3836   25.3832   -3.2813 C   0  0  0  0  0  0  0  0  0  0  0  0
   -8.0337   27.7115   -3.8960 N   0  0  0  0  0  0  0  0  0  0  0  0
   -8.7774   26.5775   -4.1448 C   0  0  0  0  0  0  0  0  0  0  0  0
   -9.6417   26.5170   -5.0162 O   0  0  0  0  0  0  0  0  0  0  0  0
   -7.4761   27.7681   -3.0866 H   0  0  0  0  0  0  0  0  0  0  0  0
   -8.0749   28.8282   -4.8355 C   0  0  0  0  0  0  0  0  0  0  0  0
   -7.3494   30.0373   -4.2613 C   0  0  0  0  0  0  0  0  0  0  0  0
   -7.4289   29.2844   -7.1666 N   0  0  0  0  0  0  0  0  0  0  0  0
   -7.3792   28.3705   -6.1333 C   0  0  0  0  0  0  0  0  0  0  0  0
   -6.7960   27.2900   -6.2209 O   0  0  0  0  0  0  0  0  0  0  0  0
   -8.0275   30.0638   -7.1088 H   0  0  0  0  0  0  0  0  0  0  0  0
   -7.4371   28.7680   -9.5667 C   0  0  0  0  0  0  0  0  0  0  0  0
   -6.5916   29.0906   -8.3432 C   0  0  0  0  0  0  0  0  0  0  0  0
   -5.8025   30.3915   -8.5786 C   0  0  0  0  0  0  0  0  0  0  0  0
   -4.6927   30.2772   -9.3644 N   0  0  0  0  0  0  0  0  0  0  0  0
   -6.1594   31.4864   -8.1527 O   0  0  0  0  0  0  0  0  0  0  0  0
   -4.4161   29.3941   -9.7002 H   0  0  0  0  0  0  0  0  0  0  0  0
   -4.1687   31.0780   -9.5956 H   0  0  0  0  0  0  0  0  0  0  0  0
   -8.5492   24.0784   -4.0782 C   0  0  0  0  0  0  0  0  0  0  0  0
   -7.3144   23.5788   -4.7352 C   0  0  0  0  0  0  0  0  0  0  0  0
   -5.9925   23.9497   -4.7400 C   0  0  0  0  0  0  0  0  0  0  0  0
   -5.3506   23.0204   -5.6036 C   0  0  0  0  0  0  0  0  0  0  0  0
   -6.2444   22.1270   -6.0599 N   0  0  0  0  0  0  0  0  0  0  0  0
   -7.4621   22.4761   -5.5164 O   0  0  0  0  0  0  0  0  0  0  0  0
   -3.9405   22.9677   -5.9962 C   0  0  0  0  0  0  0  0  0  0  0  0
   -3.5132   22.1459   -7.0479 C   0  0  0  0  0  0  0  0  0  0  0  0
   -2.1605   22.0974   -7.4103 C   0  0  0  0  0  0  0  0  0  0  0  0
   -1.1985   22.8666   -6.7370 C   0  0  0  0  0  0  0  0  0  0  0  0
   -1.6322   23.6877   -5.6857 C   0  0  0  0  0  0  0  0  0  0  0  0
   -2.9828   23.7357   -5.3182 C   0  0  0  0  0  0  0  0  0  0  0  0
    0.2196   22.8121   -7.1215 C   0  0  0  0  0  0  0  0  0  0  0  0
    1.0000   23.9790   -7.1667 C   0  0  0  0  0  0  0  0  0  0  0  0
    2.3478   23.9216   -7.5282 C   0  0  0  0  0  0  0  0  0  0  0  0
    3.2768   25.3689   -7.5796 Cl  0  0  0  0  0  0  0  0  0  0  0  0
    2.9478   22.7074   -7.8488 C   0  0  0  0  0  0  0  0  0  0  0  0
    2.1839   21.5459   -7.8067 C   0  0  0  0  0  0  0  0  0  0  0  0
    2.9092   20.0335   -8.1938 Cl  0  0  0  0  0  0  0  0  0  0  0  0
    0.8339   21.5921   -7.4496 C   0  0  0  0  0  0  0  0  0  0  0  0
   -9.1378   25.3952   -1.9471 C   0  0  0  0  0  0  0  0  0  0  0  0
   -8.0355   25.7194   -0.5562 P   0  0  0  0  0  0  0  0  0  0  0  0
   -8.0810   24.6618    0.5060 O   0  0  0  0  0  0  0  0  0  0  0  0
   -6.5801   25.6984   -1.2619 O   0  0  0  0  0  0  0  0  0  0  0  0
   -6.3936   24.8055   -1.5919 H   0  0  0  0  0  0  0  0  0  0  0  0
   -8.2501   27.3862   -0.0046 C   0  0  0  0  0  0  0  0  0  0  0  0
   -9.0666   27.6827    1.0962 C   0  0  0  0  0  0  0  0  0  0  0  0
   -9.2338   29.0025    1.5239 C   0  0  0  0  0  0  0  0  0  0  0  0
   -8.5763   30.0327    0.8561 C   0  0  0  0  0  0  0  0  0  0  0  0
   -8.8010   31.8190    1.4339 Br  0  0  0  0  0  0  0  0  0  0  0  0
   -7.7565   29.7556   -0.2352 C   0  0  0  0  0  0  0  0  0  0  0  0
   -7.5969   28.4356   -0.6650 C   0  0  0  0  0  0  0  0  0  0  0  0
 13 12  1  0
 13  8  1  0
  8  9  1  0
  9 10  2  0
  9  6  1  0
  6  7  1  0
  6  2  1  0
  2  3  1  0
  3  4  2  0
  3  1  1  0
  1 19  1  0
 19 20  1  0
 20 21  2  0
 21 22  1  0
 22 25  1  0
 25 26  2  0
 26 27  1  0
 27 28  2  0
 28 31  1  0
 31 32  2  0
 32 33  1  0
 33 34  1  0
 33 35  2  0
 35 36  1  0
 36 37  1  0
 36 38  2  0
 28 29  1  0
 29 30  2  0
 22 23  2  0
 23 24  1  0
  1 39  1  0
 39 40  1  0
 40 41  2  0
 40 42  1  0
 40 44  1  0
 44 45  2  0
 45 46  1  0
 46 47  2  0
 47 48  1  0
 47 49  1  0
 49 50  2  0
 13 14  1  0
 14 15  1  0
 14 16  2  0
 24 20  1  0
 50 44  1  0
 30 25  1  0
 38 31  1  0
  8 11  1  0
  2  5  1  0
 42 43  1  0
 15 17  1  0
 15 18  1  0
M  END
> <minimizedAffinity>
-9.63151

> <CNNscore>
0.8185431361

> <CNNaffinity>
8.6525945663

> <CNN_VS>
7.0825219154

> <CNNaffinity_variance>
0.2687609196

$$$$



 50 53  0  0  0  0  0  0  0  0999 V2000
   -7.8754   24.7570   -4.9412 C   0  0  0  0  0  0  0  0  0  0  0  0
   -8.1643   24.5954   -2.5304 N   0  0  0  0  0  0  0  0  0  0  0  0
   -8.8090   24.7809   -3.7350 C   0  0  0  0  0  0  0  0  0  0  0  0
  -10.0151   24.9974   -3.8267 O   0  0  0  0  0  0  0  0  0  0  0  0
   -7.2385   24.2610   -2.5127 H   0  0  0  0  0  0  0  0  0  0  0  0
   -8.8576   24.8960   -1.2813 C   0  0  0  0  0  0  0  0  0  0  0  0
   -8.7968   23.7041   -0.3357 C   0  0  0  0  0  0  0  0  0  0  0  0
   -8.9201   26.7992    0.2786 N   0  0  0  0  0  0  0  0  0  0  0  0
   -8.1540   26.1081   -0.6383 C   0  0  0  0  0  0  0  0  0  0  0  0
   -6.9889   26.4069   -0.8998 O   0  0  0  0  0  0  0  0  0  0  0  0
   -9.8864   26.6236    0.3477 H   0  0  0  0  0  0  0  0  0  0  0  0
   -8.8759   29.1738    0.8998 C   0  0  0  0  0  0  0  0  0  0  0  0
   -8.2927   27.7896    1.1438 C   0  0  0  0  0  0  0  0  0  0  0  0
   -8.5413   27.3648    2.6026 C   0  0  0  0  0  0  0  0  0  0  0  0
   -8.1811   28.2745    3.5539 N   0  0  0  0  0  0  0  0  0  0  0  0
   -9.0848   26.3099    2.9174 O   0  0  0  0  0  0  0  0  0  0  0  0
   -7.7459   29.1170    3.2896 H   0  0  0  0  0  0  0  0  0  0  0  0
   -8.3565   28.0881    4.5046 H   0  0  0  0  0  0  0  0  0  0  0  0
   -7.1136   23.4221   -4.9923 C   0  0  0  0  0  0  0  0  0  0  0  0
   -5.6418   23.5409   -5.1538 C   0  0  0  0  0  0  0  0  0  0  0  0
   -4.7078   23.0123   -6.0100 C   0  0  0  0  0  0  0  0  0  0  0  0
   -3.4654   23.5570   -5.5843 C   0  0  0  0  0  0  0  0  0  0  0  0
   -3.6619   24.3900   -4.5485 N   0  0  0  0  0  0  0  0  0  0  0  0
   -5.0151   24.3787   -4.2859 O   0  0  0  0  0  0  0  0  0  0  0  0
   -2.1284   23.3057   -6.1269 C   0  0  0  0  0  0  0  0  0  0  0  0
   -1.9156   22.3143   -7.0942 C   0  0  0  0  0  0  0  0  0  0  0  0
   -0.6309   22.0771   -7.6012 C   0  0  0  0  0  0  0  0  0  0  0  0
    0.4746   22.8212   -7.1600 C   0  0  0  0  0  0  0  0  0  0  0  0
    0.2552   23.8125   -6.1922 C   0  0  0  0  0  0  0  0  0  0  0  0
   -1.0267   24.0497   -5.6805 C   0  0  0  0  0  0  0  0  0  0  0  0
    1.8204   22.5683   -7.6954 C   0  0  0  0  0  0  0  0  0  0  0  0
    2.6783   23.6314   -8.0220 C   0  0  0  0  0  0  0  0  0  0  0  0
    3.9575   23.3861   -8.5260 C   0  0  0  0  0  0  0  0  0  0  0  0
    4.9836   24.7092   -8.9219 Cl  0  0  0  0  0  0  0  0  0  0  0  0
    4.4112   22.0838   -8.7131 C   0  0  0  0  0  0  0  0  0  0  0  0
    3.5697   21.0238   -8.3924 C   0  0  0  0  0  0  0  0  0  0  0  0
    4.1148   19.4057   -8.6109 Cl  0  0  0  0  0  0  0  0  0  0  0  0
    2.2869   21.2576   -7.8906 C   0  0  0  0  0  0  0  0  0  0  0  0
   -6.9665   25.9909   -4.9591 C   0  0  0  0  0  0  0  0  0  0  0  0
   -7.7687   27.4037   -5.7436 P   0  0  0  0  0  0  0  0  0  0  0  0
   -7.2638   27.6900   -7.1264 O   0  0  0  0  0  0  0  0  0  0  0  0
   -9.3084   26.9158   -5.8328 O   0  0  0  0  0  0  0  0  0  0  0  0
   -9.3734   26.1594   -6.4366 H   0  0  0  0  0  0  0  0  0  0  0  0
   -7.7889   28.7724   -4.6235 C   0  0  0  0  0  0  0  0  0  0  0  0
   -7.6992   30.0907   -5.0930 C   0  0  0  0  0  0  0  0  0  0  0  0
   -7.7124   31.1667   -4.2014 C   0  0  0  0  0  0  0  0  0  0  0  0
   -7.8247   30.9282   -2.8339 C   0  0  0  0  0  0  0  0  0  0  0  0
   -7.8433   32.3830   -1.6263 Br  0  0  0  0  0  0  0  0  0  0  0  0
   -7.9211   29.6254   -2.3507 C   0  0  0  0  0  0  0  0  0  0  0  0
   -7.9004   28.5513   -3.2441 C   0  0  0  0  0  0  0  0  0  0  0  0
 13 12  1  0
 13  8  1  0
  8  9  1  0
  9 10  2  0
  9  6  1  0
  6  7  1  0
  6  2  1  0
  2  3  1  0
  3  4  2  0
  3  1  1  0
  1 19  1  0
 19 20  1  0
 20 21  2  0
 21 22  1  0
 22 25  1  0
 25 26  2  0
 26 27  1  0
 27 28  2  0
 28 31  1  0
 31 32  2  0
 32 33  1  0
 33 34  1  0
 33 35  2  0
 35 36  1  0
 36 37  1  0
 36 38  2  0
 28 29  1  0
 29 30  2  0
 22 23  2  0
 23 24  1  0
  1 39  1  0
 39 40  1  0
 40 41  2  0
 40 42  1  0
 40 44  1  0
 44 45  2  0
 45 46  1  0
 46 47  2  0
 47 48  1  0
 47 49  1  0
 49 50  2  0
 13 14  1  0
 14 15  1  0
 14 16  2  0
 24 20  1  0
 50 44  1  0
 30 25  1  0
 38 31  1  0
  8 11  1  0
  2  5  1  0
 42 43  1  0
 15 17  1  0
 15 18  1  0
M  END
> <minimizedAffinity>
-10.50738

> <CNNscore>
0.6005362272

> <CNNaffinity>
7.8066563606

> <CNN_VS>
4.6881799698

> <CNNaffinity_variance>
0.8021275401

$$$$



 50 53  0  0  0  0  0  0  0  0999 V2000
   -8.6468   26.7485   -1.7519 C   0  0  0  0  0  0  0  0  0  0  0  0
   -7.5802   24.9066   -2.9312 N   0  0  0  0  0  0  0  0  0  0  0  0
   -8.5267   25.9055   -3.0176 C   0  0  0  0  0  0  0  0  0  0  0  0
   -9.2440   26.0701   -4.0017 O   0  0  0  0  0  0  0  0  0  0  0  0
   -6.9191   24.9150   -2.2017 H   0  0  0  0  0  0  0  0  0  0  0  0
   -7.5606   23.8364   -3.9240 C   0  0  0  0  0  0  0  0  0  0  0  0
   -8.9029   23.7436   -4.6368 C   0  0  0  0  0  0  0  0  0  0  0  0
   -5.3535   23.3314   -4.8899 N   0  0  0  0  0  0  0  0  0  0  0  0
   -6.4511   24.1667   -4.9427 C   0  0  0  0  0  0  0  0  0  0  0  0
   -6.5594   25.0812   -5.7595 O   0  0  0  0  0  0  0  0  0  0  0  0
   -5.2382   22.7139   -4.1318 H   0  0  0  0  0  0  0  0  0  0  0  0
   -2.9621   23.5448   -5.4021 C   0  0  0  0  0  0  0  0  0  0  0  0
   -4.3663   23.3673   -5.9610 C   0  0  0  0  0  0  0  0  0  0  0  0
   -4.4601   22.0380   -6.7321 C   0  0  0  0  0  0  0  0  0  0  0  0
   -3.2721   21.4196   -6.9934 N   0  0  0  0  0  0  0  0  0  0  0  0
   -5.5237   21.5125   -7.0486 O   0  0  0  0  0  0  0  0  0  0  0  0
   -2.4255   21.8507   -6.7350 H   0  0  0  0  0  0  0  0  0  0  0  0
   -3.2615   20.5425   -7.4403 H   0  0  0  0  0  0  0  0  0  0  0  0
   -8.2926   28.2134   -2.0581 C   0  0  0  0  0  0  0  0  0  0  0  0
   -7.6732   28.9613   -0.9343 C   0  0  0  0  0  0  0  0  0  0  0  0
   -6.3974   29.3450   -0.6025 C   0  0  0  0  0  0  0  0  0  0  0  0
   -6.5289   30.0398    0.6310 C   0  0  0  0  0  0  0  0  0  0  0  0
   -7.8221   30.0903    0.9920 N   0  0  0  0  0  0  0  0  0  0  0  0
   -8.5294   29.4213    0.0162 O   0  0  0  0  0  0  0  0  0  0  0  0
   -5.4760   30.6389    1.4542 C   0  0  0  0  0  0  0  0  0  0  0  0
   -4.6624   31.6642    0.9533 C   0  0  0  0  0  0  0  0  0  0  0  0
   -3.6531   32.2253    1.7470 C   0  0  0  0  0  0  0  0  0  0  0  0
   -3.4283   31.7821    3.0599 C   0  0  0  0  0  0  0  0  0  0  0  0
   -4.2463   30.7561    3.5558 C   0  0  0  0  0  0  0  0  0  0  0  0
   -5.2535   30.1904    2.7641 C   0  0  0  0  0  0  0  0  0  0  0  0
   -2.3679   32.3744    3.8883 C   0  0  0  0  0  0  0  0  0  0  0  0
   -1.0214   32.3048    3.4945 C   0  0  0  0  0  0  0  0  0  0  0  0
   -0.0181   32.8730    4.2825 C   0  0  0  0  0  0  0  0  0  0  0  0
    1.6230   32.7669    3.7764 Cl  0  0  0  0  0  0  0  0  0  0  0  0
   -0.3300   33.5225    5.4731 C   0  0  0  0  0  0  0  0  0  0  0  0
   -1.6604   33.5974    5.8719 C   0  0  0  0  0  0  0  0  0  0  0  0
   -2.0673   34.4020    7.3383 Cl  0  0  0  0  0  0  0  0  0  0  0  0
   -2.6719   33.0298    5.0931 C   0  0  0  0  0  0  0  0  0  0  0  0
   -7.8323   26.1402   -0.6051 C   0  0  0  0  0  0  0  0  0  0  0  0
   -8.8606   25.1460    0.4944 P   0  0  0  0  0  0  0  0  0  0  0  0
   -9.2275   23.8072   -0.0732 O   0  0  0  0  0  0  0  0  0  0  0  0
   -7.8887   24.9317    1.7697 O   0  0  0  0  0  0  0  0  0  0  0  0
   -7.1239   24.3961    1.5069 H   0  0  0  0  0  0  0  0  0  0  0  0
  -10.2005   26.1272    1.1028 C   0  0  0  0  0  0  0  0  0  0  0  0
   -9.9911   27.1044    2.0865 C   0  0  0  0  0  0  0  0  0  0  0  0
  -11.0555   27.8733    2.5645 C   0  0  0  0  0  0  0  0  0  0  0  0
  -12.3353   27.6734    2.0530 C   0  0  0  0  0  0  0  0  0  0  0  0
  -13.7766   28.7134    2.6983 Br  0  0  0  0  0  0  0  0  0  0  0  0
  -12.5602   26.7115    1.0711 C   0  0  0  0  0  0  0  0  0  0  0  0
  -11.4952   25.9393    0.6002 C   0  0  0  0  0  0  0  0  0  0  0  0
 13 12  1  0
 13  8  1  0
  8  9  1  0
  9 10  2  0
  9  6  1  0
  6  7  1  0
  6  2  1  0
  2  3  1  0
  3  4  2  0
  3  1  1  0
  1 19  1  0
 19 20  1  0
 20 21  2  0
 21 22  1  0
 22 25  1  0
 25 26  2  0
 26 27  1  0
 27 28  2  0
 28 31  1  0
 31 32  2  0
 32 33  1  0
 33 34  1  0
 33 35  2  0
 35 36  1  0
 36 37  1  0
 36 38  2  0
 28 29  1  0
 29 30  2  0
 22 23  2  0
 23 24  1  0
  1 39  1  0
 39 40  1  0
 40 41  2  0
 40 42  1  0
 40 44  1  0
 44 45  2  0
 45 46  1  0
 46 47  2  0
 47 48  1  0
 47 49  1  0
 49 50  2  0
 13 14  1  0
 14 15  1  0
 14 16  2  0
 24 20  1  0
 50 44  1  0
 30 25  1  0
 38 31  1  0
  8 11  1  0
  2  5  1  0
 42 43  1  0
 15 17  1  0
 15 18  1  0
M  END
> <minimizedAffinity>
-7.31613

> <CNNscore>
0.5771964788

> <CNNaffinity>
7.8157114983

> <CNN_VS>
4.5112013817

> <CNNaffinity_variance>
0.0827393979

$$$$



 50 53  0  0  0  0  0  0  0  0999 V2000
   -7.5928   25.1822   -3.8325 C   0  0  0  0  0  0  0  0  0  0  0  0
   -7.6669   27.5990   -4.1056 N   0  0  0  0  0  0  0  0  0  0  0  0
   -7.4543   26.3963   -4.7455 C   0  0  0  0  0  0  0  0  0  0  0  0
   -7.1321   26.3108   -5.9282 O   0  0  0  0  0  0  0  0  0  0  0  0
   -8.0830   27.6165   -3.2135 H   0  0  0  0  0  0  0  0  0  0  0  0
   -7.2736   28.8465   -4.7539 C   0  0  0  0  0  0  0  0  0  0  0  0
   -8.1247   29.0977   -5.9911 C   0  0  0  0  0  0  0  0  0  0  0  0
   -7.6962   31.2285   -4.2992 N   0  0  0  0  0  0  0  0  0  0  0  0
   -7.4833   29.9862   -3.7366 C   0  0  0  0  0  0  0  0  0  0  0  0
   -7.4955   29.7890   -2.5216 O   0  0  0  0  0  0  0  0  0  0  0  0
   -7.5301   31.3716   -5.2589 H   0  0  0  0  0  0  0  0  0  0  0  0
   -7.7057   33.6676   -4.0198 C   0  0  0  0  0  0  0  0  0  0  0  0
   -8.1678   32.3274   -3.4665 C   0  0  0  0  0  0  0  0  0  0  0  0
   -9.7063   32.2721   -3.4416 C   0  0  0  0  0  0  0  0  0  0  0  0
  -10.3086   31.9985   -4.6351 N   0  0  0  0  0  0  0  0  0  0  0  0
  -10.3718   32.3986   -2.4176 O   0  0  0  0  0  0  0  0  0  0  0  0
   -9.7646   31.8992   -5.4497 H   0  0  0  0  0  0  0  0  0  0  0  0
  -11.2871   31.9005   -4.6817 H   0  0  0  0  0  0  0  0  0  0  0  0
   -7.7744   23.9076   -4.6735 C   0  0  0  0  0  0  0  0  0  0  0  0
   -6.5281   23.3612   -5.2689 C   0  0  0  0  0  0  0  0  0  0  0  0
   -5.2027   23.7190   -5.2585 C   0  0  0  0  0  0  0  0  0  0  0  0
   -4.5483   22.7378   -6.0525 C   0  0  0  0  0  0  0  0  0  0  0  0
   -5.4393   21.8291   -6.4833 N   0  0  0  0  0  0  0  0  0  0  0  0
   -6.6671   22.2188   -5.9926 O   0  0  0  0  0  0  0  0  0  0  0  0
   -3.1290   22.6506   -6.4037 C   0  0  0  0  0  0  0  0  0  0  0  0
   -2.1761   23.4576   -5.7675 C   0  0  0  0  0  0  0  0  0  0  0  0
   -0.8217   23.3712   -6.1164 C   0  0  0  0  0  0  0  0  0  0  0  0
   -0.3804   22.4787   -7.1060 C   0  0  0  0  0  0  0  0  0  0  0  0
   -1.3387   21.6733   -7.7388 C   0  0  0  0  0  0  0  0  0  0  0  0
   -2.6936   21.7596   -7.3952 C   0  0  0  0  0  0  0  0  0  0  0  0
    1.0420   22.3922   -7.4682 C   0  0  0  0  0  0  0  0  0  0  0  0
    1.7848   23.5492   -7.7552 C   0  0  0  0  0  0  0  0  0  0  0  0
    3.1368   23.4624   -8.0943 C   0  0  0  0  0  0  0  0  0  0  0  0
    4.0192   24.8972   -8.4458 Cl  0  0  0  0  0  0  0  0  0  0  0  0
    3.7783   22.2288   -8.1528 C   0  0  0  0  0  0  0  0  0  0  0  0
    3.0519   21.0769   -7.8700 C   0  0  0  0  0  0  0  0  0  0  0  0
    3.8288   19.5420   -7.9309 Cl  0  0  0  0  0  0  0  0  0  0  0  0
    1.6981   21.1517   -7.5327 C   0  0  0  0  0  0  0  0  0  0  0  0
   -8.6949   25.3995   -2.7898 C   0  0  0  0  0  0  0  0  0  0  0  0
   -8.0623   25.2606   -1.1060 P   0  0  0  0  0  0  0  0  0  0  0  0
   -8.1418   23.8714   -0.5467 O   0  0  0  0  0  0  0  0  0  0  0  0
   -6.5079   25.6686   -1.2906 O   0  0  0  0  0  0  0  0  0  0  0  0
   -6.0613   25.0022   -1.8358 H   0  0  0  0  0  0  0  0  0  0  0  0
   -8.7540   26.5437   -0.1041 C   0  0  0  0  0  0  0  0  0  0  0  0
   -8.1015   27.7763    0.0421 C   0  0  0  0  0  0  0  0  0  0  0  0
   -8.6526   28.7838    0.8382 C   0  0  0  0  0  0  0  0  0  0  0  0
   -9.8662   28.5653    1.4856 C   0  0  0  0  0  0  0  0  0  0  0  0
  -10.6136   29.9278    2.5627 Br  0  0  0  0  0  0  0  0  0  0  0  0
  -10.5310   27.3494    1.3463 C   0  0  0  0  0  0  0  0  0  0  0  0
   -9.9738   26.3412    0.5554 C   0  0  0  0  0  0  0  0  0  0  0  0
 13 12  1  0
 13  8  1  0
  8  9  1  0
  9 10  2  0
  9  6  1  0
  6  7  1  0
  6  2  1  0
  2  3  1  0
  3  4  2  0
  3  1  1  0
  1 19  1  0
 19 20  1  0
 20 21  2  0
 21 22  1  0
 22 25  1  0
 25 26  2  0
 26 27  1  0
 27 28  2  0
 28 31  1  0
 31 32  2  0
 32 33  1  0
 33 34  1  0
 33 35  2  0
 35 36  1  0
 36 37  1  0
 36 38  2  0
 28 29  1  0
 29 30  2  0
 22 23  2  0
 23 24  1  0
  1 39  1  0
 39 40  1  0
 40 41  2  0
 40 42  1  0
 40 44  1  0
 44 45  2  0
 45 46  1  0
 46 47  2  0
 47 48  1  0
 47 49  1  0
 49 50  2  0
 13 14  1  0
 14 15  1  0
 14 16  2  0
 24 20  1  0
 50 44  1  0
 30 25  1  0
 38 31  1  0
  8 11  1  0
  2  5  1  0
 42 43  1  0
 15 17  1  0
 15 18  1  0
M  END
> <minimizedAffinity>
-9.83131

> <CNNscore>
0.5352090001

> <CNNaffinity>
8.0116300583

> <CNN_VS>
4.2878966331

> <CNNaffinity_variance>
0.2390395254

$$$$



 50 53  0  0  0  0  0  0  0  0999 V2000
   -7.7054   24.6132   -4.6751 C   0  0  0  0  0  0  0  0  0  0  0  0
   -8.9693   24.5692   -2.5962 N   0  0  0  0  0  0  0  0  0  0  0  0
   -7.7401   24.8272   -3.1652 C   0  0  0  0  0  0  0  0  0  0  0  0
   -6.7502   25.1489   -2.5120 O   0  0  0  0  0  0  0  0  0  0  0  0
   -9.7676   24.4803   -3.1655 H   0  0  0  0  0  0  0  0  0  0  0  0
   -9.0843   24.4284   -1.1477 C   0  0  0  0  0  0  0  0  0  0  0  0
   -7.7091   24.2626   -0.5156 C   0  0  0  0  0  0  0  0  0  0  0  0
  -10.9520   25.4966    0.0482 N   0  0  0  0  0  0  0  0  0  0  0  0
   -9.7557   25.7071   -0.6075 C   0  0  0  0  0  0  0  0  0  0  0  0
   -9.2409   26.8192   -0.7233 O   0  0  0  0  0  0  0  0  0  0  0  0
  -11.4012   24.6226   -0.0114 H   0  0  0  0  0  0  0  0  0  0  0  0
  -13.0634   26.5669    0.6990 C   0  0  0  0  0  0  0  0  0  0  0  0
  -11.5472   26.5735    0.8287 C   0  0  0  0  0  0  0  0  0  0  0  0
  -11.1453   26.3655    2.3003 C   0  0  0  0  0  0  0  0  0  0  0  0
  -10.9345   25.0717    2.6796 N   0  0  0  0  0  0  0  0  0  0  0  0
  -10.9572   27.2885    3.0878 O   0  0  0  0  0  0  0  0  0  0  0  0
  -11.0887   24.3397    2.0395 H   0  0  0  0  0  0  0  0  0  0  0  0
  -10.6283   24.8702    3.5933 H   0  0  0  0  0  0  0  0  0  0  0  0
   -6.9565   23.3115   -5.0065 C   0  0  0  0  0  0  0  0  0  0  0  0
   -5.4917   23.4586   -5.2040 C   0  0  0  0  0  0  0  0  0  0  0  0
   -4.5563   22.8897   -6.0325 C   0  0  0  0  0  0  0  0  0  0  0  0
   -3.3240   23.5019   -5.6746 C   0  0  0  0  0  0  0  0  0  0  0  0
   -3.5284   24.4094   -4.7051 N   0  0  0  0  0  0  0  0  0  0  0  0
   -4.8762   24.3808   -4.4175 O   0  0  0  0  0  0  0  0  0  0  0  0
   -1.9890   23.2458   -6.2200 C   0  0  0  0  0  0  0  0  0  0  0  0
   -1.7799   22.2465   -7.1801 C   0  0  0  0  0  0  0  0  0  0  0  0
   -0.4972   22.0049   -7.6898 C   0  0  0  0  0  0  0  0  0  0  0  0
    0.6101   22.7523   -7.2587 C   0  0  0  0  0  0  0  0  0  0  0  0
    0.3945   23.7515   -6.2981 C   0  0  0  0  0  0  0  0  0  0  0  0
   -0.8855   23.9931   -5.7837 C   0  0  0  0  0  0  0  0  0  0  0  0
    1.9539   22.4946   -7.7969 C   0  0  0  0  0  0  0  0  0  0  0  0
    2.8248   23.5541   -8.0999 C   0  0  0  0  0  0  0  0  0  0  0  0
    4.1020   23.3043   -8.6067 C   0  0  0  0  0  0  0  0  0  0  0  0
    5.1444   24.6232   -8.9734 Cl  0  0  0  0  0  0  0  0  0  0  0  0
    4.5408   22.0009   -8.8200 C   0  0  0  0  0  0  0  0  0  0  0  0
    3.6863   20.9445   -8.5228 C   0  0  0  0  0  0  0  0  0  0  0  0
    4.2128   19.3249   -8.7739 Cl  0  0  0  0  0  0  0  0  0  0  0  0
    2.4053   21.1830   -8.0184 C   0  0  0  0  0  0  0  0  0  0  0  0
   -7.1510   25.8479   -5.3942 C   0  0  0  0  0  0  0  0  0  0  0  0
   -8.1634   27.3105   -5.0932 P   0  0  0  0  0  0  0  0  0  0  0  0
   -9.6062   26.9986   -4.8280 O   0  0  0  0  0  0  0  0  0  0  0  0
   -7.4972   27.9162   -3.7494 O   0  0  0  0  0  0  0  0  0  0  0  0
   -7.6343   27.2988   -3.0139 H   0  0  0  0  0  0  0  0  0  0  0  0
   -7.8459   28.5201   -6.3440 C   0  0  0  0  0  0  0  0  0  0  0  0
   -7.4882   28.1369   -7.6446 C   0  0  0  0  0  0  0  0  0  0  0  0
   -7.2355   29.0986   -8.6264 C   0  0  0  0  0  0  0  0  0  0  0  0
   -7.3487   30.4508   -8.3129 C   0  0  0  0  0  0  0  0  0  0  0  0
   -7.0078   31.7534   -9.6404 Br  0  0  0  0  0  0  0  0  0  0  0  0
   -7.7092   30.8492   -7.0278 C   0  0  0  0  0  0  0  0  0  0  0  0
   -7.9542   29.8853   -6.0463 C   0  0  0  0  0  0  0  0  0  0  0  0
 13 12  1  0
 13  8  1  0
  8  9  1  0
  9 10  2  0
  9  6  1  0
  6  7  1  0
  6  2  1  0
  2  3  1  0
  3  4  2  0
  3  1  1  0
  1 19  1  0
 19 20  1  0
 20 21  2  0
 21 22  1  0
 22 25  1  0
 25 26  2  0
 26 27  1  0
 27 28  2  0
 28 31  1  0
 31 32  2  0
 32 33  1  0
 33 34  1  0
 33 35  2  0
 35 36  1  0
 36 37  1  0
 36 38  2  0
 28 29  1  0
 29 30  2  0
 22 23  2  0
 23 24  1  0
  1 39  1  0
 39 40  1  0
 40 41  2  0
 40 42  1  0
 40 44  1  0
 44 45  2  0
 45 46  1  0
 46 47  2  0
 47 48  1  0
 47 49  1  0
 49 50  2  0
 13 14  1  0
 14 15  1  0
 14 16  2  0
 24 20  1  0
 50 44  1  0
 30 25  1  0
 38 31  1  0
  8 11  1  0
  2  5  1  0
 42 43  1  0
 15 17  1  0
 15 18  1  0
M  END
> <minimizedAffinity>
-10.79561

> <CNNscore>
0.5046244264

> <CNNaffinity>
7.6103301048

> <CNN_VS>
3.8403584957

> <CNNaffinity_variance>
0.5863966346

$$$$



 50 53  0  0  0  0  0  0  0  0999 V2000
   -7.9963   28.3651   -4.2879 C   0  0  0  0  0  0  0  0  0  0  0  0
   -8.4284   30.2297   -2.7854 N   0  0  0  0  0  0  0  0  0  0  0  0
   -8.8653   29.5600   -3.9087 C   0  0  0  0  0  0  0  0  0  0  0  0
   -9.8336   29.9210   -4.5737 O   0  0  0  0  0  0  0  0  0  0  0  0
   -7.7599   29.8157   -2.1930 H   0  0  0  0  0  0  0  0  0  0  0  0
   -8.9593   31.5542   -2.4767 C   0  0  0  0  0  0  0  0  0  0  0  0
   -9.0833   31.7430   -0.9710 C   0  0  0  0  0  0  0  0  0  0  0  0
   -8.5321   33.4577   -3.9780 N   0  0  0  0  0  0  0  0  0  0  0  0
   -7.9785   32.5949   -3.0537 C   0  0  0  0  0  0  0  0  0  0  0  0
   -6.8059   32.6677   -2.6864 O   0  0  0  0  0  0  0  0  0  0  0  0
   -9.4231   33.2737   -4.3542 H   0  0  0  0  0  0  0  0  0  0  0  0
   -7.4317   35.5085   -3.1968 C   0  0  0  0  0  0  0  0  0  0  0  0
   -7.7923   34.6419   -4.3946 C   0  0  0  0  0  0  0  0  0  0  0  0
   -6.5110   34.1700   -5.1059 C   0  0  0  0  0  0  0  0  0  0  0  0
   -6.6715   33.1550   -6.0037 N   0  0  0  0  0  0  0  0  0  0  0  0
   -5.4135   34.6960   -4.9434 O   0  0  0  0  0  0  0  0  0  0  0  0
   -7.5563   32.7408   -6.1255 H   0  0  0  0  0  0  0  0  0  0  0  0
   -5.9024   32.8368   -6.5297 H   0  0  0  0  0  0  0  0  0  0  0  0
   -6.8760   28.8094   -5.2431 C   0  0  0  0  0  0  0  0  0  0  0  0
   -7.1972   28.6965   -6.6889 C   0  0  0  0  0  0  0  0  0  0  0  0
   -8.3500   28.6775   -7.4343 C   0  0  0  0  0  0  0  0  0  0  0  0
   -7.9173   28.5386   -8.7815 C   0  0  0  0  0  0  0  0  0  0  0  0
   -6.5749   28.5092   -8.8302 N   0  0  0  0  0  0  0  0  0  0  0  0
   -6.1318   28.6096   -7.5288 O   0  0  0  0  0  0  0  0  0  0  0  0
   -8.7338   28.4331   -9.9928 C   0  0  0  0  0  0  0  0  0  0  0  0
   -8.3576   27.5897  -11.0469 C   0  0  0  0  0  0  0  0  0  0  0  0
   -9.1424   27.5020  -12.2045 C   0  0  0  0  0  0  0  0  0  0  0  0
  -10.3224   28.2497  -12.3424 C   0  0  0  0  0  0  0  0  0  0  0  0
  -10.6941   29.0915  -11.2838 C   0  0  0  0  0  0  0  0  0  0  0  0
   -9.9102   29.1846  -10.1270 C   0  0  0  0  0  0  0  0  0  0  0  0
  -11.1422   28.1538  -13.5592 C   0  0  0  0  0  0  0  0  0  0  0  0
  -11.4086   29.2900  -14.3408 C   0  0  0  0  0  0  0  0  0  0  0  0
  -12.1840   29.1931  -15.4983 C   0  0  0  0  0  0  0  0  0  0  0  0
  -12.4976   30.6038  -16.4322 Cl  0  0  0  0  0  0  0  0  0  0  0  0
  -12.7073   27.9691  -15.9042 C   0  0  0  0  0  0  0  0  0  0  0  0
  -12.4490   26.8377  -15.1375 C   0  0  0  0  0  0  0  0  0  0  0  0
  -13.0823   25.3134  -15.6262 Cl  0  0  0  0  0  0  0  0  0  0  0  0
  -11.6773   26.9236  -13.9760 C   0  0  0  0  0  0  0  0  0  0  0  0
   -8.8497   27.2118   -4.8269 C   0  0  0  0  0  0  0  0  0  0  0  0
   -8.6259   25.7038   -3.8623 P   0  0  0  0  0  0  0  0  0  0  0  0
   -8.4506   25.9503   -2.3935 O   0  0  0  0  0  0  0  0  0  0  0  0
  -10.0264   24.9318   -4.1058 O   0  0  0  0  0  0  0  0  0  0  0  0
  -10.7495   25.4400   -3.7062 H   0  0  0  0  0  0  0  0  0  0  0  0
   -7.4035   24.6828   -4.6315 C   0  0  0  0  0  0  0  0  0  0  0  0
   -6.0397   24.8569   -4.3550 C   0  0  0  0  0  0  0  0  0  0  0  0
   -5.0797   24.0485   -4.9694 C   0  0  0  0  0  0  0  0  0  0  0  0
   -5.4813   23.0543   -5.8581 C   0  0  0  0  0  0  0  0  0  0  0  0
   -4.1835   21.9592   -6.6897 Br  0  0  0  0  0  0  0  0  0  0  0  0
   -6.8320   22.8633   -6.1394 C   0  0  0  0  0  0  0  0  0  0  0  0
   -7.7892   23.6780   -5.5290 C   0  0  0  0  0  0  0  0  0  0  0  0
 13 12  1  0
 13  8  1  0
  8  9  1  0
  9 10  2  0
  9  6  1  0
  6  7  1  0
  6  2  1  0
  2  3  1  0
  3  4  2  0
  3  1  1  0
  1 19  1  0
 19 20  1  0
 20 21  2  0
 21 22  1  0
 22 25  1  0
 25 26  2  0
 26 27  1  0
 27 28  2  0
 28 31  1  0
 31 32  2  0
 32 33  1  0
 33 34  1  0
 33 35  2  0
 35 36  1  0
 36 37  1  0
 36 38  2  0
 28 29  1  0
 29 30  2  0
 22 23  2  0
 23 24  1  0
  1 39  1  0
 39 40  1  0
 40 41  2  0
 40 42  1  0
 40 44  1  0
 44 45  2  0
 45 46  1  0
 46 47  2  0
 47 48  1  0
 47 49  1  0
 49 50  2  0
 13 14  1  0
 14 15  1  0
 14 16  2  0
 24 20  1  0
 50 44  1  0
 30 25  1  0
 38 31  1  0
  8 11  1  0
  2  5  1  0
 42 43  1  0
 15 17  1  0
 15 18  1  0
M  END
> <minimizedAffinity>
-8.31211

> <CNNscore>
0.4871232510

> <CNNaffinity>
7.5431251526

> <CNN_VS>
3.6744315624

> <CNNaffinity_variance>
0.6122179031

$$$$



 50 53  0  0  0  0  0  0  0  0999 V2000
   -7.9747   25.5345   -3.6508 C   0  0  0  0  0  0  0  0  0  0  0  0
   -7.1166   27.5306   -4.7465 N   0  0  0  0  0  0  0  0  0  0  0  0
   -8.2060   26.6961   -4.6122 C   0  0  0  0  0  0  0  0  0  0  0  0
   -9.2484   26.8425   -5.2462 O   0  0  0  0  0  0  0  0  0  0  0  0
   -6.3726   27.4780   -4.1040 H   0  0  0  0  0  0  0  0  0  0  0  0
   -7.0690   28.4924   -5.8438 C   0  0  0  0  0  0  0  0  0  0  0  0
   -7.8923   27.9972   -7.0251 C   0  0  0  0  0  0  0  0  0  0  0  0
   -7.5329   30.0083   -3.9607 N   0  0  0  0  0  0  0  0  0  0  0  0
   -7.6515   29.8218   -5.3232 C   0  0  0  0  0  0  0  0  0  0  0  0
   -8.1478   30.6612   -6.0744 O   0  0  0  0  0  0  0  0  0  0  0  0
   -7.2706   29.2578   -3.3800 H   0  0  0  0  0  0  0  0  0  0  0  0
   -7.4304   32.4280   -4.3624 C   0  0  0  0  0  0  0  0  0  0  0  0
   -7.7974   31.3206   -3.3854 C   0  0  0  0  0  0  0  0  0  0  0  0
   -9.2982   31.3932   -3.0494 C   0  0  0  0  0  0  0  0  0  0  0  0
  -10.1494   31.0886   -4.0715 N   0  0  0  0  0  0  0  0  0  0  0  0
   -9.7295   31.6436   -1.9274 O   0  0  0  0  0  0  0  0  0  0  0  0
   -9.7920   30.8895   -4.9670 H   0  0  0  0  0  0  0  0  0  0  0  0
  -11.1209   31.0681   -3.9135 H   0  0  0  0  0  0  0  0  0  0  0  0
   -8.1521   24.1964   -4.3877 C   0  0  0  0  0  0  0  0  0  0  0  0
   -6.9096   23.6254   -4.9675 C   0  0  0  0  0  0  0  0  0  0  0  0
   -5.5918   24.0069   -5.0203 C   0  0  0  0  0  0  0  0  0  0  0  0
   -4.9368   22.9754   -5.7472 C   0  0  0  0  0  0  0  0  0  0  0  0
   -5.8193   22.0180   -6.0788 N   0  0  0  0  0  0  0  0  0  0  0  0
   -7.0426   22.4246   -5.5909 O   0  0  0  0  0  0  0  0  0  0  0  0
   -3.5248   22.8852   -6.1259 C   0  0  0  0  0  0  0  0  0  0  0  0
   -3.0986   21.9943   -7.1203 C   0  0  0  0  0  0  0  0  0  0  0  0
   -1.7442   21.9108   -7.4696 C   0  0  0  0  0  0  0  0  0  0  0  0
   -0.7792   22.7126   -6.8398 C   0  0  0  0  0  0  0  0  0  0  0  0
   -1.2119   23.6027   -5.8458 C   0  0  0  0  0  0  0  0  0  0  0  0
   -2.5643   23.6860   -5.4915 C   0  0  0  0  0  0  0  0  0  0  0  0
    0.6407   22.6210   -7.2103 C   0  0  0  0  0  0  0  0  0  0  0  0
    1.2748   21.3738   -7.3339 C   0  0  0  0  0  0  0  0  0  0  0  0
    2.6225   21.2916   -7.6905 C   0  0  0  0  0  0  0  0  0  0  0  0
    3.3730   19.7494   -7.8288 Cl  0  0  0  0  0  0  0  0  0  0  0  0
    3.3661   22.4426   -7.9338 C   0  0  0  0  0  0  0  0  0  0  0  0
    2.7475   23.6826   -7.8145 C   0  0  0  0  0  0  0  0  0  0  0  0
    3.6485   25.1179   -8.1172 Cl  0  0  0  0  0  0  0  0  0  0  0  0
    1.4006   23.7768   -7.4552 C   0  0  0  0  0  0  0  0  0  0  0  0
   -8.8473   25.6734   -2.3985 C   0  0  0  0  0  0  0  0  0  0  0  0
   -7.8585   25.6844   -0.8896 P   0  0  0  0  0  0  0  0  0  0  0  0
   -8.1025   24.5001   -0.0025 O   0  0  0  0  0  0  0  0  0  0  0  0
   -6.3502   25.6094   -1.4694 O   0  0  0  0  0  0  0  0  0  0  0  0
   -6.2156   24.7564   -1.9112 H   0  0  0  0  0  0  0  0  0  0  0  0
   -7.9711   27.2716   -0.1174 C   0  0  0  0  0  0  0  0  0  0  0  0
   -8.6089   27.4278    1.1217 C   0  0  0  0  0  0  0  0  0  0  0  0
   -8.6968   28.6857    1.7239 C   0  0  0  0  0  0  0  0  0  0  0  0
   -8.1380   29.7937    1.0918 C   0  0  0  0  0  0  0  0  0  0  0  0
   -8.2556   31.4965    1.9055 Br  0  0  0  0  0  0  0  0  0  0  0  0
   -7.4953   29.6557   -0.1362 C   0  0  0  0  0  0  0  0  0  0  0  0
   -7.4153   28.3978   -0.7392 C   0  0  0  0  0  0  0  0  0  0  0  0
 13 12  1  0
 13  8  1  0
  8  9  1  0
  9 10  2  0
  9  6  1  0
  6  7  1  0
  6  2  1  0
  2  3  1  0
  3  4  2  0
  3  1  1  0
  1 19  1  0
 19 20  1  0
 20 21  2  0
 21 22  1  0
 22 25  1  0
 25 26  2  0
 26 27  1  0
 27 28  2  0
 28 31  1  0
 31 32  2  0
 32 33  1  0
 33 34  1  0
 33 35  2  0
 35 36  1  0
 36 37  1  0
 36 38  2  0
 28 29  1  0
 29 30  2  0
 22 23  2  0
 23 24  1  0
  1 39  1  0
 39 40  1  0
 40 41  2  0
 40 42  1  0
 40 44  1  0
 44 45  2  0
 45 46  1  0
 46 47  2  0
 47 48  1  0
 47 49  1  0
 49 50  2  0
 13 14  1  0
 14 15  1  0
 14 16  2  0
 24 20  1  0
 50 44  1  0
 30 25  1  0
 38 31  1  0
  8 11  1  0
  2  5  1  0
 42 43  1  0
 15 17  1  0
 15 18  1  0
M  END
> <minimizedAffinity>
-9.61909

> <CNNscore>
0.4792647660

> <CNNaffinity>
8.0807609558

> <CNN_VS>
3.8728239536

> <CNNaffinity_variance>
0.1808673739

$$$$
