


 25 25  0  0  0  0  0  0  0  0999 V2000
   30.3338   37.2306   25.3248 C   0  0  0  0  0  0  0  0  0  0  0  0
   31.2741   37.0784   26.5608 C   0  0  0  0  0  0  0  0  0  0  0  0
   32.0786   35.8437   26.4458 N   0  0  0  0  0  0  0  0  0  0  0  0
   32.6698   35.8992   25.6165 H   0  0  0  0  0  0  0  0  0  0  0  0
   31.4569   35.0389   26.3669 H   0  0  0  0  0  0  0  0  0  0  0  0
   32.1649   38.3373   26.7636 C   0  0  0  0  0  0  0  0  0  0  0  0
   33.0066   38.3263   28.0197 C   0  0  0  0  0  0  0  0  0  0  0  0
   32.5142   38.8634   29.2197 C   0  0  0  0  0  0  0  0  0  0  0  0
   33.2798   38.8085   30.3860 C   0  0  0  0  0  0  0  0  0  0  0  0
   34.5436   38.2348   30.3515 C   0  0  0  0  0  0  0  0  0  0  0  0
   35.2683   38.1633   31.4733 F   0  0  0  0  0  0  0  0  0  0  0  0
   35.0665   37.7326   29.1669 C   0  0  0  0  0  0  0  0  0  0  0  0
   34.3030   37.7829   27.9996 C   0  0  0  0  0  0  0  0  0  0  0  0
   29.3581   35.9637   24.9889 N   0  0  0  0  0  0  0  0  0  0  0  0
   27.9912   36.3534   25.5801 C   0  0  0  0  0  0  0  0  0  0  0  0
   29.8648   34.7304   25.7114 C   0  0  0  0  0  0  0  0  0  0  0  0
   29.3667   35.8985   23.4668 C   0  0  0  0  0  0  0  0  0  0  0  0
   28.4164   34.9844   22.6345 N   0  0  0  0  0  0  0  0  0  0  0  0
   26.9858   35.4878   22.6747 C   0  0  0  0  0  0  0  0  0  0  0  0
   28.9108   35.1754   21.1836 C   0  0  0  0  0  0  0  0  0  0  0  0
   28.5674   33.5294   23.0800 C   0  0  0  0  0  0  0  0  0  0  0  0
   29.0635   32.4251   20.7847 C   0  0  0  0  0  0  0  0  0  0  0  0
   28.3742   32.3484   22.1426 N   0  0  0  0  0  0  0  0  0  0  0  0
   26.8343   32.3103   21.8139 C   0  0  0  0  0  0  0  0  0  0  0  0
   28.6534   30.9741   22.7781 C   0  0  0  0  0  0  0  0  0  0  0  0
 22 23  1  0
 23 24  1  0
 23 25  1  0
 23 21  1  0
 21 18  1  0
 18 19  1  0
 18 20  1  0
 18 17  1  0
 17 14  1  0
 14 15  1  0
 14 16  1  0
 14  1  1  0
  1  2  1  0
  2  3  1  0
  2  6  1  0
  6  7  1  0
  7  8  2  0
  8  9  1  0
  9 10  2  0
 10 11  1  0
 10 12  1  0
 12 13  2  0
 13  7  1  0
  3  4  1  0
  3  5  1  0
M  CHG 1  14   1
M  CHG 1  18   1
M  CHG 1  23   1
M  END
> <minimizedAffinity>
25.24328

> <CNNscore>
0.8621615171

> <CNNaffinity>
5.2096543312

> <CNN_VS>
4.4915633202

> <CNNaffinity_variance>
0.8650331497

$$$$



 25 25  0  0  0  0  0  0  0  0999 V2000
   29.1278   29.6366   23.8934 C   0  0  0  0  0  0  0  0  0  0  0  0
   30.2365   28.5590   23.6818 C   0  0  0  0  0  0  0  0  0  0  0  0
   31.2971   28.7057   24.7008 N   0  0  0  0  0  0  0  0  0  0  0  0
   30.8999   28.5580   25.6286 H   0  0  0  0  0  0  0  0  0  0  0  0
   31.6937   29.6439   24.6462 H   0  0  0  0  0  0  0  0  0  0  0  0
   29.6438   27.1211   23.6607 C   0  0  0  0  0  0  0  0  0  0  0  0
   30.2225   26.2091   22.6026 C   0  0  0  0  0  0  0  0  0  0  0  0
   29.3921   25.3635   21.8500 C   0  0  0  0  0  0  0  0  0  0  0  0
   29.9285   24.5577   20.8438 C   0  0  0  0  0  0  0  0  0  0  0  0
   31.2951   24.5813   20.6006 C   0  0  0  0  0  0  0  0  0  0  0  0
   31.8061   23.8253   19.6228 F   0  0  0  0  0  0  0  0  0  0  0  0
   32.1406   25.3807   21.3589 C   0  0  0  0  0  0  0  0  0  0  0  0
   31.6078   26.1899   22.3637 C   0  0  0  0  0  0  0  0  0  0  0  0
   29.3512   31.0713   23.1443 N   0  0  0  0  0  0  0  0  0  0  0  0
   30.8784   31.2098   23.0087 C   0  0  0  0  0  0  0  0  0  0  0  0
   28.8400   32.1897   24.0319 C   0  0  0  0  0  0  0  0  0  0  0  0
   28.6353   30.8948   21.8110 C   0  0  0  0  0  0  0  0  0  0  0  0
   27.7448   31.9937   21.1549 N   0  0  0  0  0  0  0  0  0  0  0  0
   27.1617   32.9306   22.1960 C   0  0  0  0  0  0  0  0  0  0  0  0
   28.7488   32.8250   20.3260 C   0  0  0  0  0  0  0  0  0  0  0  0
   26.6922   31.3456   20.2548 C   0  0  0  0  0  0  0  0  0  0  0  0
   25.8574   30.1244   18.1227 C   0  0  0  0  0  0  0  0  0  0  0  0
   27.0184   30.7307   18.9034 N   0  0  0  0  0  0  0  0  0  0  0  0
   27.9801   29.5204   19.2049 C   0  0  0  0  0  0  0  0  0  0  0  0
   27.8416   31.6367   17.9695 C   0  0  0  0  0  0  0  0  0  0  0  0
 22 23  1  0
 23 24  1  0
 23 25  1  0
 23 21  1  0
 21 18  1  0
 18 19  1  0
 18 20  1  0
 18 17  1  0
 17 14  1  0
 14 15  1  0
 14 16  1  0
 14  1  1  0
  1  2  1  0
  2  3  1  0
  2  6  1  0
  6  7  1  0
  7  8  2  0
  8  9  1  0
  9 10  2  0
 10 11  1  0
 10 12  1  0
 12 13  2  0
 13  7  1  0
  3  4  1  0
  3  5  1  0
M  CHG 1  14   1
M  CHG 1  18   1
M  CHG 1  23   1
M  END
> <minimizedAffinity>
6.21359

> <CNNscore>
0.7229861617

> <CNNaffinity>
6.3043122292

> <CNN_VS>
4.5579304695

> <CNNaffinity_variance>
0.0993938521

$$$$



 25 25  0  0  0  0  0  0  0  0999 V2000
   28.6141   28.8310   18.7683 C   0  0  0  0  0  0  0  0  0  0  0  0
   28.5246   27.6764   19.8142 C   0  0  0  0  0  0  0  0  0  0  0  0
   27.5013   26.6911   19.4058 N   0  0  0  0  0  0  0  0  0  0  0  0
   27.7667   26.2753   18.5130 H   0  0  0  0  0  0  0  0  0  0  0  0
   26.5995   27.1578   19.3089 H   0  0  0  0  0  0  0  0  0  0  0  0
   29.9098   27.0114   20.0560 C   0  0  0  0  0  0  0  0  0  0  0  0
   29.8731   25.5106   20.2365 C   0  0  0  0  0  0  0  0  0  0  0  0
   28.7232   24.7750   19.9083 C   0  0  0  0  0  0  0  0  0  0  0  0
   28.7127   23.3846   20.0348 C   0  0  0  0  0  0  0  0  0  0  0  0
   29.8424   22.7295   20.5061 C   0  0  0  0  0  0  0  0  0  0  0  0
   29.8396   21.3959   20.6074 F   0  0  0  0  0  0  0  0  0  0  0  0
   30.9775   23.4404   20.8738 C   0  0  0  0  0  0  0  0  0  0  0  0
   30.9929   24.8302   20.7459 C   0  0  0  0  0  0  0  0  0  0  0  0
   27.5654   30.0698   18.9564 N   0  0  0  0  0  0  0  0  0  0  0  0
   26.1721   29.4195   18.8810 C   0  0  0  0  0  0  0  0  0  0  0  0
   27.7124   31.0366   17.7972 C   0  0  0  0  0  0  0  0  0  0  0  0
   27.9059   30.6213   20.3352 C   0  0  0  0  0  0  0  0  0  0  0  0
   27.7661   32.1248   20.7245 N   0  0  0  0  0  0  0  0  0  0  0  0
   28.7932   32.9815   20.0084 C   0  0  0  0  0  0  0  0  0  0  0  0
   26.3865   32.5191   20.1525 C   0  0  0  0  0  0  0  0  0  0  0  0
   27.7945   32.2761   22.2458 C   0  0  0  0  0  0  0  0  0  0  0  0
   28.9031   30.6183   23.9060 C   0  0  0  0  0  0  0  0  0  0  0  0
   28.9992   31.9064   23.0959 N   0  0  0  0  0  0  0  0  0  0  0  0
   29.1330   33.0513   24.1694 C   0  0  0  0  0  0  0  0  0  0  0  0
   30.3447   31.9381   22.3481 C   0  0  0  0  0  0  0  0  0  0  0  0
 22 23  1  0
 23 24  1  0
 23 25  1  0
 23 21  1  0
 21 18  1  0
 18 19  1  0
 18 20  1  0
 18 17  1  0
 17 14  1  0
 14 15  1  0
 14 16  1  0
 14  1  1  0
  1  2  1  0
  2  3  1  0
  2  6  1  0
  6  7  1  0
  7  8  2  0
  8  9  1  0
  9 10  2  0
 10 11  1  0
 10 12  1  0
 12 13  2  0
 13  7  1  0
  3  4  1  0
  3  5  1  0
M  CHG 1  14   1
M  CHG 1  18   1
M  CHG 1  23   1
M  END
> <minimizedAffinity>
7.92305

> <CNNscore>
0.6992149949

> <CNNaffinity>
5.5050907135

> <CNN_VS>
3.8492419720

> <CNNaffinity_variance>
0.3090412617

$$$$



 25 25  0  0  0  0  0  0  0  0999 V2000
   29.5593   29.0845   22.6371 C   0  0  0  0  0  0  0  0  0  0  0  0
   30.1284   28.2833   23.8493 C   0  0  0  0  0  0  0  0  0  0  0  0
   29.0302   27.8407   24.7341 N   0  0  0  0  0  0  0  0  0  0  0  0
   28.4092   27.2165   24.2191 H   0  0  0  0  0  0  0  0  0  0  0  0
   28.5046   28.6533   25.0563 H   0  0  0  0  0  0  0  0  0  0  0  0
   31.0181   27.0947   23.3857 C   0  0  0  0  0  0  0  0  0  0  0  0
   30.2757   25.9781   22.6869 C   0  0  0  0  0  0  0  0  0  0  0  0
   29.4694   25.0867   23.4123 C   0  0  0  0  0  0  0  0  0  0  0  0
   28.7512   24.0865   22.7542 C   0  0  0  0  0  0  0  0  0  0  0  0
   28.8515   23.9634   21.3750 C   0  0  0  0  0  0  0  0  0  0  0  0
   28.1472   23.0187   20.7423 F   0  0  0  0  0  0  0  0  0  0  0  0
   29.6735   24.8092   20.6416 C   0  0  0  0  0  0  0  0  0  0  0  0
   30.3907   25.8123   21.2956 C   0  0  0  0  0  0  0  0  0  0  0  0
   29.0912   30.6218   22.9327 N   0  0  0  0  0  0  0  0  0  0  0  0
   30.3879   31.4482   22.8585 C   0  0  0  0  0  0  0  0  0  0  0  0
   28.5346   30.7187   24.3401 C   0  0  0  0  0  0  0  0  0  0  0  0
   28.1128   30.9218   21.8039 C   0  0  0  0  0  0  0  0  0  0  0  0
   27.9934   32.3126   21.1090 N   0  0  0  0  0  0  0  0  0  0  0  0
   29.3362   32.7906   20.5892 C   0  0  0  0  0  0  0  0  0  0  0  0
   27.1180   32.0231   19.8697 C   0  0  0  0  0  0  0  0  0  0  0  0
   27.3086   33.3084   22.0458 C   0  0  0  0  0  0  0  0  0  0  0  0
   27.1251   35.7338   22.9499 C   0  0  0  0  0  0  0  0  0  0  0  0
   28.0057   34.5375   22.6062 N   0  0  0  0  0  0  0  0  0  0  0  0
   28.9565   35.0502   21.4599 C   0  0  0  0  0  0  0  0  0  0  0  0
   28.9590   34.2530   23.7813 C   0  0  0  0  0  0  0  0  0  0  0  0
 22 23  1  0
 23 24  1  0
 23 25  1  0
 23 21  1  0
 21 18  1  0
 18 19  1  0
 18 20  1  0
 18 17  1  0
 17 14  1  0
 14 15  1  0
 14 16  1  0
 14  1  1  0
  1  2  1  0
  2  3  1  0
  2  6  1  0
  6  7  1  0
  7  8  2  0
  8  9  1  0
  9 10  2  0
 10 11  1  0
 10 12  1  0
 12 13  2  0
 13  7  1  0
  3  4  1  0
  3  5  1  0
M  CHG 1  14   1
M  CHG 1  18   1
M  CHG 1  23   1
M  END
> <minimizedAffinity>
6.26009

> <CNNscore>
0.6466817856

> <CNNaffinity>
5.8599467278

> <CNN_VS>
3.7895207405

> <CNNaffinity_variance>
0.3754487038

$$$$



 25 25  0  0  0  0  0  0  0  0999 V2000
   27.9712   33.4239   21.0473 C   0  0  0  0  0  0  0  0  0  0  0  0
   28.9977   34.5926   21.1720 C   0  0  0  0  0  0  0  0  0  0  0  0
   29.0946   35.3302   19.8947 N   0  0  0  0  0  0  0  0  0  0  0  0
   28.1886   35.7414   19.6700 H   0  0  0  0  0  0  0  0  0  0  0  0
   29.3704   34.6884   19.1515 H   0  0  0  0  0  0  0  0  0  0  0  0
   28.6563   35.5327   22.3632 C   0  0  0  0  0  0  0  0  0  0  0  0
   29.0111   34.9865   23.7277 C   0  0  0  0  0  0  0  0  0  0  0  0
   29.1910   33.6083   23.9258 C   0  0  0  0  0  0  0  0  0  0  0  0
   29.5631   33.1162   25.1783 C   0  0  0  0  0  0  0  0  0  0  0  0
   29.7375   33.9963   26.2377 C   0  0  0  0  0  0  0  0  0  0  0  0
   30.1144   33.5272   27.4321 F   0  0  0  0  0  0  0  0  0  0  0  0
   29.5267   35.3594   26.0744 C   0  0  0  0  0  0  0  0  0  0  0  0
   29.1577   35.8555   24.8231 C   0  0  0  0  0  0  0  0  0  0  0  0
   28.5406   31.9185   21.3284 N   0  0  0  0  0  0  0  0  0  0  0  0
   27.8497   31.4741   22.6302 C   0  0  0  0  0  0  0  0  0  0  0  0
   30.0364   31.9812   21.5706 C   0  0  0  0  0  0  0  0  0  0  0  0
   28.0935   31.1316   20.1027 C   0  0  0  0  0  0  0  0  0  0  0  0
   27.0157   31.6372   19.0957 N   0  0  0  0  0  0  0  0  0  0  0  0
   26.6845   33.0999   19.3248 C   0  0  0  0  0  0  0  0  0  0  0  0
   27.7315   31.5555   17.7293 C   0  0  0  0  0  0  0  0  0  0  0  0
   25.7938   30.7186   19.1322 C   0  0  0  0  0  0  0  0  0  0  0  0
   24.7242   28.4171   18.5908 C   0  0  0  0  0  0  0  0  0  0  0  0
   25.5612   29.6036   18.1255 N   0  0  0  0  0  0  0  0  0  0  0  0
   26.9836   29.0007   17.8185 C   0  0  0  0  0  0  0  0  0  0  0  0
   25.0531   30.0773   16.7514 C   0  0  0  0  0  0  0  0  0  0  0  0
 22 23  1  0
 23 24  1  0
 23 25  1  0
 23 21  1  0
 21 18  1  0
 18 19  1  0
 18 20  1  0
 18 17  1  0
 17 14  1  0
 14 15  1  0
 14 16  1  0
 14  1  1  0
  1  2  1  0
  2  3  1  0
  2  6  1  0
  6  7  1  0
  7  8  2  0
  8  9  1  0
  9 10  2  0
 10 11  1  0
 10 12  1  0
 12 13  2  0
 13  7  1  0
  3  4  1  0
  3  5  1  0
M  CHG 1  14   1
M  CHG 1  18   1
M  CHG 1  23   1
M  END
> <minimizedAffinity>
7.94917

> <CNNscore>
0.6295710802

> <CNNaffinity>
6.4142036438

> <CNN_VS>
4.0381970406

> <CNNaffinity_variance>
0.0760922059

$$$$



 25 25  0  0  0  0  0  0  0  0999 V2000
   28.3191   29.7494   20.4319 C   0  0  0  0  0  0  0  0  0  0  0  0
   28.2595   28.5105   19.4850 C   0  0  0  0  0  0  0  0  0  0  0  0
   27.9589   28.9349   18.1014 N   0  0  0  0  0  0  0  0  0  0  0  0
   28.7043   29.5433   17.7629 H   0  0  0  0  0  0  0  0  0  0  0  0
   27.0735   29.4411   18.0859 H   0  0  0  0  0  0  0  0  0  0  0  0
   29.5616   27.6633   19.5645 C   0  0  0  0  0  0  0  0  0  0  0  0
   29.4080   26.3217   20.2449 C   0  0  0  0  0  0  0  0  0  0  0  0
   28.4435   25.4001   19.8075 C   0  0  0  0  0  0  0  0  0  0  0  0
   28.3385   24.1457   20.4115 C   0  0  0  0  0  0  0  0  0  0  0  0
   29.1826   23.8174   21.4637 C   0  0  0  0  0  0  0  0  0  0  0  0
   29.0961   22.6081   22.0285 F   0  0  0  0  0  0  0  0  0  0  0  0
   30.1176   24.7280   21.9386 C   0  0  0  0  0  0  0  0  0  0  0  0
   30.2277   25.9819   21.3354 C   0  0  0  0  0  0  0  0  0  0  0  0
   27.4916   31.0746   19.9538 N   0  0  0  0  0  0  0  0  0  0  0  0
   26.2455   30.5224   19.2383 C   0  0  0  0  0  0  0  0  0  0  0  0
   28.3209   31.8536   18.9510 C   0  0  0  0  0  0  0  0  0  0  0  0
   27.1756   31.7907   21.2609 C   0  0  0  0  0  0  0  0  0  0  0  0
   28.1894   32.7062   22.0130 N   0  0  0  0  0  0  0  0  0  0  0  0
   28.9969   31.9221   23.0303 C   0  0  0  0  0  0  0  0  0  0  0  0
   29.1756   33.1390   20.9057 C   0  0  0  0  0  0  0  0  0  0  0  0
   27.4634   33.9143   22.6058 C   0  0  0  0  0  0  0  0  0  0  0  0
   28.9842   35.2260   24.2492 C   0  0  0  0  0  0  0  0  0  0  0  0
   28.1662   35.2142   22.9625 N   0  0  0  0  0  0  0  0  0  0  0  0
   27.0206   36.2687   23.2008 C   0  0  0  0  0  0  0  0  0  0  0  0
   29.0021   35.8239   21.8223 C   0  0  0  0  0  0  0  0  0  0  0  0
 22 23  1  0
 23 24  1  0
 23 25  1  0
 23 21  1  0
 21 18  1  0
 18 19  1  0
 18 20  1  0
 18 17  1  0
 17 14  1  0
 14 15  1  0
 14 16  1  0
 14  1  1  0
  1  2  1  0
  2  3  1  0
  2  6  1  0
  6  7  1  0
  7  8  2  0
  8  9  1  0
  9 10  2  0
 10 11  1  0
 10 12  1  0
 12 13  2  0
 13  7  1  0
  3  4  1  0
  3  5  1  0
M  CHG 1  14   1
M  CHG 1  18   1
M  CHG 1  23   1
M  END
> <minimizedAffinity>
4.93737

> <CNNscore>
0.4397741854

> <CNNaffinity>
5.3534636497

> <CNN_VS>
2.3543150425

> <CNNaffinity_variance>
0.4092489183

$$$$



 25 25  0  0  0  0  0  0  0  0999 V2000
   28.2914   29.8692   20.4517 C   0  0  0  0  0  0  0  0  0  0  0  0
   28.2439   28.6833   19.4385 C   0  0  0  0  0  0  0  0  0  0  0  0
   27.9710   29.1831   18.0745 N   0  0  0  0  0  0  0  0  0  0  0  0
   28.7253   29.8047   17.7829 H   0  0  0  0  0  0  0  0  0  0  0  0
   27.0883   29.6942   18.0700 H   0  0  0  0  0  0  0  0  0  0  0  0
   29.5405   27.8259   19.4962 C   0  0  0  0  0  0  0  0  0  0  0  0
   29.3881   26.4860   20.1801 C   0  0  0  0  0  0  0  0  0  0  0  0
   28.3788   25.5910   19.7912 C   0  0  0  0  0  0  0  0  0  0  0  0
   28.2731   24.3374   20.3966 C   0  0  0  0  0  0  0  0  0  0  0  0
   29.1622   23.9834   21.4024 C   0  0  0  0  0  0  0  0  0  0  0  0
   29.0742   22.7745   21.9677 F   0  0  0  0  0  0  0  0  0  0  0  0
   30.1438   24.8680   21.8302 C   0  0  0  0  0  0  0  0  0  0  0  0
   30.2545   26.1210   21.2254 C   0  0  0  0  0  0  0  0  0  0  0  0
   27.2533   31.1018   20.1825 N   0  0  0  0  0  0  0  0  0  0  0  0
   26.4694   31.2496   21.4992 C   0  0  0  0  0  0  0  0  0  0  0  0
   26.2839   30.7148   19.0822 C   0  0  0  0  0  0  0  0  0  0  0  0
   28.1686   32.2824   19.8833 C   0  0  0  0  0  0  0  0  0  0  0  0
   28.7846   33.2003   20.9832 N   0  0  0  0  0  0  0  0  0  0  0  0
   29.1996   34.5447   20.4159 C   0  0  0  0  0  0  0  0  0  0  0  0
   27.5980   33.4700   21.9346 C   0  0  0  0  0  0  0  0  0  0  0  0
   29.9133   32.4648   21.7065 C   0  0  0  0  0  0  0  0  0  0  0  0
   31.2073   31.7414   23.8363 C   0  0  0  0  0  0  0  0  0  0  0  0
   29.8897   32.1653   23.1966 N   0  0  0  0  0  0  0  0  0  0  0  0
   28.9375   30.9224   23.3682 C   0  0  0  0  0  0  0  0  0  0  0  0
   29.2337   33.2589   24.0593 C   0  0  0  0  0  0  0  0  0  0  0  0
 22 23  1  0
 23 24  1  0
 23 25  1  0
 23 21  1  0
 21 18  1  0
 18 19  1  0
 18 20  1  0
 18 17  1  0
 17 14  1  0
 14 15  1  0
 14 16  1  0
 14  1  1  0
  1  2  1  0
  2  3  1  0
  2  6  1  0
  6  7  1  0
  7  8  2  0
  8  9  1  0
  9 10  2  0
 10 11  1  0
 10 12  1  0
 12 13  2  0
 13  7  1  0
  3  4  1  0
  3  5  1  0
M  CHG 1  14   1
M  CHG 1  18   1
M  CHG 1  23   1
M  END
> <minimizedAffinity>
7.08897

> <CNNscore>
0.4100461900

> <CNNaffinity>
5.3899216652

> <CNN_VS>
2.2101168633

> <CNNaffinity_variance>
0.2782483399

$$$$



 25 25  0  0  0  0  0  0  0  0999 V2000
   28.2796   22.6103   20.8437 C   0  0  0  0  0  0  0  0  0  0  0  0
   28.9931   23.3871   19.6937 C   0  0  0  0  0  0  0  0  0  0  0  0
   28.3142   23.1354   18.4050 N   0  0  0  0  0  0  0  0  0  0  0  0
   27.3539   23.4757   18.4544 H   0  0  0  0  0  0  0  0  0  0  0  0
   28.3104   22.1337   18.2127 H   0  0  0  0  0  0  0  0  0  0  0  0
   29.1018   24.9066   20.0078 C   0  0  0  0  0  0  0  0  0  0  0  0
   30.2111   25.2815   20.9644 C   0  0  0  0  0  0  0  0  0  0  0  0
   31.5464   25.3291   20.5334 C   0  0  0  0  0  0  0  0  0  0  0  0
   32.5595   25.7202   21.4109 C   0  0  0  0  0  0  0  0  0  0  0  0
   32.2436   26.0459   22.7230 C   0  0  0  0  0  0  0  0  0  0  0  0
   33.2111   26.4408   23.5578 F   0  0  0  0  0  0  0  0  0  0  0  0
   30.9349   25.9681   23.1817 C   0  0  0  0  0  0  0  0  0  0  0  0
   29.9190   25.5804   22.3067 C   0  0  0  0  0  0  0  0  0  0  0  0
   28.4474   20.9850   20.8411 N   0  0  0  0  0  0  0  0  0  0  0  0
   29.8254   20.7336   20.2027 C   0  0  0  0  0  0  0  0  0  0  0  0
   27.3827   20.3687   19.9542 C   0  0  0  0  0  0  0  0  0  0  0  0
   28.3842   20.6158   22.3179 C   0  0  0  0  0  0  0  0  0  0  0  0
   27.5642   21.4161   23.3756 N   0  0  0  0  0  0  0  0  0  0  0  0
   27.5806   22.9042   23.0808 C   0  0  0  0  0  0  0  0  0  0  0  0
   26.1138   20.9367   23.1463 C   0  0  0  0  0  0  0  0  0  0  0  0
   28.0434   21.0645   24.7844 C   0  0  0  0  0  0  0  0  0  0  0  0
   30.2329   22.4271   25.0738 C   0  0  0  0  0  0  0  0  0  0  0  0
   29.5065   21.0921   25.1962 N   0  0  0  0  0  0  0  0  0  0  0  0
   30.2513   20.1321   24.1938 C   0  0  0  0  0  0  0  0  0  0  0  0
   29.7939   20.4812   26.5799 C   0  0  0  0  0  0  0  0  0  0  0  0
 22 23  1  0
 23 24  1  0
 23 25  1  0
 23 21  1  0
 21 18  1  0
 18 19  1  0
 18 20  1  0
 18 17  1  0
 17 14  1  0
 14 15  1  0
 14 16  1  0
 14  1  1  0
  1  2  1  0
  2  3  1  0
  2  6  1  0
  6  7  1  0
  7  8  2  0
  8  9  1  0
  9 10  2  0
 10 11  1  0
 10 12  1  0
 12 13  2  0
 13  7  1  0
  3  4  1  0
  3  5  1  0
M  CHG 1  14   1
M  CHG 1  18   1
M  CHG 1  23   1
M  END
> <minimizedAffinity>
-0.43826

> <CNNscore>
0.3562624454

> <CNNaffinity>
4.7441697121

> <CNN_VS>
1.6901694536

> <CNNaffinity_variance>
0.8285112977

$$$$



 25 25  0  0  0  0  0  0  0  0999 V2000
   29.2162   26.5553   22.9225 C   0  0  0  0  0  0  0  0  0  0  0  0
   30.0634   25.6885   21.9397 C   0  0  0  0  0  0  0  0  0  0  0  0
   31.0243   26.5368   21.2035 N   0  0  0  0  0  0  0  0  0  0  0  0
   31.6699   26.9706   21.8633 H   0  0  0  0  0  0  0  0  0  0  0  0
   30.5179   27.2625   20.6962 H   0  0  0  0  0  0  0  0  0  0  0  0
   30.7682   24.5116   22.6729 C   0  0  0  0  0  0  0  0  0  0  0  0
   29.8587   23.3688   23.0642 C   0  0  0  0  0  0  0  0  0  0  0  0
   30.1106   22.6130   24.2202 C   0  0  0  0  0  0  0  0  0  0  0  0
   29.2408   21.5889   24.5993 C   0  0  0  0  0  0  0  0  0  0  0  0
   28.1299   21.3062   23.8160 C   0  0  0  0  0  0  0  0  0  0  0  0
   27.2852   20.3392   24.1904 F   0  0  0  0  0  0  0  0  0  0  0  0
   27.8824   22.0151   22.6475 C   0  0  0  0  0  0  0  0  0  0  0  0
   28.7481   23.0416   22.2668 C   0  0  0  0  0  0  0  0  0  0  0  0
   29.9318   27.9002   23.5129 N   0  0  0  0  0  0  0  0  0  0  0  0
   31.4226   27.5337   23.6274 C   0  0  0  0  0  0  0  0  0  0  0  0
   29.3958   28.1895   24.9018 C   0  0  0  0  0  0  0  0  0  0  0  0
   29.6441   28.9546   22.4514 C   0  0  0  0  0  0  0  0  0  0  0  0
   29.2976   30.4394   22.7783 N   0  0  0  0  0  0  0  0  0  0  0  0
   28.0258   30.5451   23.5987 C   0  0  0  0  0  0  0  0  0  0  0  0
   30.4549   30.8862   23.6985 C   0  0  0  0  0  0  0  0  0  0  0  0
   29.2678   31.2652   21.4916 C   0  0  0  0  0  0  0  0  0  0  0  0
   27.8831   33.4597   21.4815 C   0  0  0  0  0  0  0  0  0  0  0  0
   28.0357   32.0165   21.0140 N   0  0  0  0  0  0  0  0  0  0  0  0
   26.8037   31.2568   21.6353 C   0  0  0  0  0  0  0  0  0  0  0  0
   27.7903   31.9446   19.4957 C   0  0  0  0  0  0  0  0  0  0  0  0
 22 23  1  0
 23 24  1  0
 23 25  1  0
 23 21  1  0
 21 18  1  0
 18 19  1  0
 18 20  1  0
 18 17  1  0
 17 14  1  0
 14 15  1  0
 14 16  1  0
 14  1  1  0
  1  2  1  0
  2  3  1  0
  2  6  1  0
  6  7  1  0
  7  8  2  0
  8  9  1  0
  9 10  2  0
 10 11  1  0
 10 12  1  0
 12 13  2  0
 13  7  1  0
  3  4  1  0
  3  5  1  0
M  CHG 1  14   1
M  CHG 1  18   1
M  CHG 1  23   1
M  END
> <minimizedAffinity>
13.36634

> <CNNscore>
0.3240952194

> <CNNaffinity>
5.3861403465

> <CNN_VS>
1.7456223965

> <CNNaffinity_variance>
0.0942100957

$$$$
