


 34 36  0  0  0  0  0  0  0  0999 V2000
   30.0420   -4.9578   17.2620 C   0  0  0  0  0  0  0  0  0  0  0  0
   29.1442   -4.3188   16.7156 O   0  0  0  0  0  0  0  0  0  0  0  0
   30.2400   -4.9209   18.6303 N   0  0  0  0  0  0  0  0  0  0  0  0
   30.8625   -5.5321   19.0865 H   0  0  0  0  0  0  0  0  0  0  0  0
   32.7649   -7.4723   14.9540 C   0  0  0  0  0  0  0  0  0  0  0  0
   31.5986   -7.9643   15.5828 C   0  0  0  0  0  0  0  0  0  0  0  0
   30.7310   -7.1403   16.3165 C   0  0  0  0  0  0  0  0  0  0  0  0
   30.9909   -5.7781   16.4625 C   0  0  0  0  0  0  0  0  0  0  0  0
   32.1458   -5.2507   15.8920 C   0  0  0  0  0  0  0  0  0  0  0  0
   33.0115   -6.0926   15.1596 C   0  0  0  0  0  0  0  0  0  0  0  0
   33.2320   -9.9268   14.2642 C   0  0  0  0  0  0  0  0  0  0  0  0
   33.6661   -8.4475   14.1537 C   0  0  0  0  0  0  0  0  0  0  0  0
   33.6750   -8.0229   12.6699 C   0  0  0  0  0  0  0  0  0  0  0  0
   35.1441   -8.4286   14.6376 C   0  0  0  0  0  0  0  0  0  0  0  0
   34.1970   -5.4251   14.6593 N   0  0  0  0  0  0  0  0  0  0  0  0
   35.1731   -5.3838   15.4180 O   0  0  0  0  0  0  0  0  0  0  0  0
   34.1602   -5.0135   13.4941 O   0  0  0  0  0  0  0  0  0  0  0  0
   29.4869   -3.9441   19.3347 N   0  0  0  0  0  0  0  0  0  0  0  0
   28.6816   -4.4329   20.3615 C   0  0  0  0  0  0  0  0  0  0  0  0
   28.4916   -5.6371   20.4967 O   0  0  0  0  0  0  0  0  0  0  0  0
   28.1636   -3.3995   21.1122 N   0  0  0  0  0  0  0  0  0  0  0  0
   29.5309   -2.9860   19.1124 H   0  0  0  0  0  0  0  0  0  0  0  0
   28.3842   -2.4927   20.7986 H   0  0  0  0  0  0  0  0  0  0  0  0
   27.3553   -3.4669   22.2758 C   0  0  0  0  0  0  0  0  0  0  0  0
   26.0341   -2.9996   22.2660 C   0  0  0  0  0  0  0  0  0  0  0  0
   25.2368   -3.0752   23.4056 C   0  0  0  0  0  0  0  0  0  0  0  0
   25.7447   -3.6258   24.5755 C   0  0  0  0  0  0  0  0  0  0  0  0
   27.0575   -4.1099   24.6264 C   0  0  0  0  0  0  0  0  0  0  0  0
   27.5341   -4.6662   25.8237 C   0  0  0  0  0  0  0  0  0  0  0  0
   28.8291   -5.1571   25.9041 C   0  0  0  0  0  0  0  0  0  0  0  0
   29.2649   -5.6990   27.0504 F   0  0  0  0  0  0  0  0  0  0  0  0
   29.6737   -5.1076   24.8109 C   0  0  0  0  0  0  0  0  0  0  0  0
   29.2140   -4.5540   23.6121 C   0  0  0  0  0  0  0  0  0  0  0  0
   27.8937   -4.0397   23.4754 C   0  0  0  0  0  0  0  0  0  0  0  0
 11 12  1  0
 12 13  1  0
 12 14  1  0
 12  5  1  0
  5  6  2  0
  6  7  1  0
  7  8  2  0
  8  1  1  0
  1  2  2  0
  1  3  1  0
  3 18  1  0
 18 19  1  0
 19 20  2  0
 19 21  1  0
 21 24  1  0
 24 25  2  0
 25 26  1  0
 26 27  2  0
 27 28  1  0
 28 29  2  0
 29 30  1  0
 30 31  1  0
 30 32  2  0
 32 33  1  0
 33 34  2  0
  8  9  1  0
  9 10  2  0
 10 15  1  0
 15 16  2  0
 15 17  1  0
 10  5  1  0
 34 24  1  0
 34 28  1  0
  3  4  1  0
 18 22  1  0
 21 23  1  0
M  CHG 1  15   1
M  CHG 1  17  -1
M  END
> <minimizedAffinity>
-6.58362

> <CNNscore>
0.5940232873

> <CNNaffinity>
6.4047894478

> <CNN_VS>
3.8045940399

> <CNNaffinity_variance>
0.1579685956

$$$$



 34 36  0  0  0  0  0  0  0  0999 V2000
   31.2978   -5.4216   17.7876 C   0  0  0  0  0  0  0  0  0  0  0  0
   30.8563   -4.5286   17.0661 O   0  0  0  0  0  0  0  0  0  0  0  0
   30.9420   -5.5311   19.1196 N   0  0  0  0  0  0  0  0  0  0  0  0
   31.1801   -6.3169   19.6629 H   0  0  0  0  0  0  0  0  0  0  0  0
   34.1000   -8.3377   16.1425 C   0  0  0  0  0  0  0  0  0  0  0  0
   33.0646   -7.7434   15.3859 C   0  0  0  0  0  0  0  0  0  0  0  0
   32.1758   -6.8030   15.9295 C   0  0  0  0  0  0  0  0  0  0  0  0
   32.2760   -6.4125   17.2645 C   0  0  0  0  0  0  0  0  0  0  0  0
   33.2569   -6.9948   18.0619 C   0  0  0  0  0  0  0  0  0  0  0  0
   34.1419   -7.9425   17.5021 C   0  0  0  0  0  0  0  0  0  0  0  0
   34.5957   -9.7778   14.0450 C   0  0  0  0  0  0  0  0  0  0  0  0
   35.0459   -9.3617   15.4638 C   0  0  0  0  0  0  0  0  0  0  0  0
   36.4688   -8.7674   15.3990 C   0  0  0  0  0  0  0  0  0  0  0  0
   35.1495  -10.6959   16.2565 C   0  0  0  0  0  0  0  0  0  0  0  0
   35.0829   -8.5018   18.4524 N   0  0  0  0  0  0  0  0  0  0  0  0
   34.6946   -9.4733   19.1124 O   0  0  0  0  0  0  0  0  0  0  0  0
   36.2162   -8.0084   18.4772 O   0  0  0  0  0  0  0  0  0  0  0  0
   30.2109   -4.4363   19.6531 N   0  0  0  0  0  0  0  0  0  0  0  0
   29.1600   -4.7741   20.5036 C   0  0  0  0  0  0  0  0  0  0  0  0
   28.7798   -5.9356   20.6078 O   0  0  0  0  0  0  0  0  0  0  0  0
   28.6559   -3.6538   21.1285 N   0  0  0  0  0  0  0  0  0  0  0  0
   30.4317   -3.5017   19.4365 H   0  0  0  0  0  0  0  0  0  0  0  0
   29.0588   -2.7972   20.8579 H   0  0  0  0  0  0  0  0  0  0  0  0
   27.6347   -3.5692   22.1092 C   0  0  0  0  0  0  0  0  0  0  0  0
   26.3892   -3.0014   21.8084 C   0  0  0  0  0  0  0  0  0  0  0  0
   25.3825   -2.9276   22.7682 C   0  0  0  0  0  0  0  0  0  0  0  0
   25.6011   -3.4263   24.0462 C   0  0  0  0  0  0  0  0  0  0  0  0
   26.8289   -4.0069   24.3866 C   0  0  0  0  0  0  0  0  0  0  0  0
   27.0111   -4.5067   25.6855 C   0  0  0  0  0  0  0  0  0  0  0  0
   28.2150   -5.0905   26.0516 C   0  0  0  0  0  0  0  0  0  0  0  0
   28.3686   -5.5767   27.2916 F   0  0  0  0  0  0  0  0  0  0  0  0
   29.2565   -5.1905   25.1481 C   0  0  0  0  0  0  0  0  0  0  0  0
   29.0909   -4.6948   23.8512 C   0  0  0  0  0  0  0  0  0  0  0  0
   27.8752   -4.0900   23.4237 C   0  0  0  0  0  0  0  0  0  0  0  0
 11 12  1  0
 12 13  1  0
 12 14  1  0
 12  5  1  0
  5  6  2  0
  6  7  1  0
  7  8  2  0
  8  1  1  0
  1  2  2  0
  1  3  1  0
  3 18  1  0
 18 19  1  0
 19 20  2  0
 19 21  1  0
 21 24  1  0
 24 25  2  0
 25 26  1  0
 26 27  2  0
 27 28  1  0
 28 29  2  0
 29 30  1  0
 30 31  1  0
 30 32  2  0
 32 33  1  0
 33 34  2  0
  8  9  1  0
  9 10  2  0
 10 15  1  0
 15 16  2  0
 15 17  1  0
 10  5  1  0
 34 24  1  0
 34 28  1  0
  3  4  1  0
 18 22  1  0
 21 23  1  0
M  CHG 1  15   1
M  CHG 1  17  -1
M  END
> <minimizedAffinity>
-6.29006

> <CNNscore>
0.5428665280

> <CNNaffinity>
6.0979728699

> <CNN_VS>
3.3103854656

> <CNNaffinity_variance>
0.1330244988

$$$$



 34 36  0  0  0  0  0  0  0  0999 V2000
   29.2323   -4.9438   19.4978 C   0  0  0  0  0  0  0  0  0  0  0  0
   29.4922   -6.0716   19.0811 O   0  0  0  0  0  0  0  0  0  0  0  0
   29.3634   -3.8201   18.7024 N   0  0  0  0  0  0  0  0  0  0  0  0
   29.0280   -2.9378   18.9822 H   0  0  0  0  0  0  0  0  0  0  0  0
   28.0402   -4.4098   23.6639 C   0  0  0  0  0  0  0  0  0  0  0  0
   29.1406   -5.2031   23.2668 C   0  0  0  0  0  0  0  0  0  0  0  0
   29.5134   -5.3592   21.9227 C   0  0  0  0  0  0  0  0  0  0  0  0
   28.7975   -4.7309   20.9042 C   0  0  0  0  0  0  0  0  0  0  0  0
   27.6836   -3.9669   21.2401 C   0  0  0  0  0  0  0  0  0  0  0  0
   27.3181   -3.8217   22.5965 C   0  0  0  0  0  0  0  0  0  0  0  0
   27.7056   -2.8248   25.6874 C   0  0  0  0  0  0  0  0  0  0  0  0
   27.7002   -4.2816   25.1711 C   0  0  0  0  0  0  0  0  0  0  0  0
   26.3171   -4.9150   25.4314 C   0  0  0  0  0  0  0  0  0  0  0  0
   28.7176   -5.0299   26.0789 C   0  0  0  0  0  0  0  0  0  0  0  0
   26.1153   -3.0390   22.8012 N   0  0  0  0  0  0  0  0  0  0  0  0
   25.6958   -2.9587   23.9622 O   0  0  0  0  0  0  0  0  0  0  0  0
   25.6467   -2.4607   21.8140 O   0  0  0  0  0  0  0  0  0  0  0  0
   30.0135   -4.0213   17.4555 N   0  0  0  0  0  0  0  0  0  0  0  0
   31.3332   -3.5792   17.3886 C   0  0  0  0  0  0  0  0  0  0  0  0
   31.8131   -2.8854   18.2791 O   0  0  0  0  0  0  0  0  0  0  0  0
   31.9350   -4.0070   16.2248 N   0  0  0  0  0  0  0  0  0  0  0  0
   29.5619   -4.4447   16.6900 H   0  0  0  0  0  0  0  0  0  0  0  0
   31.3550   -4.5024   15.6024 H   0  0  0  0  0  0  0  0  0  0  0  0
   33.2776   -3.8295   15.8034 C   0  0  0  0  0  0  0  0  0  0  0  0
   34.2328   -4.8379   15.9898 C   0  0  0  0  0  0  0  0  0  0  0  0
   35.5490   -4.6679   15.5666 C   0  0  0  0  0  0  0  0  0  0  0  0
   35.9329   -3.4874   14.9431 C   0  0  0  0  0  0  0  0  0  0  0  0
   35.0086   -2.4571   14.7320 C   0  0  0  0  0  0  0  0  0  0  0  0
   35.4310   -1.2814   14.0922 C   0  0  0  0  0  0  0  0  0  0  0  0
   34.5377   -0.2445   13.8660 C   0  0  0  0  0  0  0  0  0  0  0  0
   34.9527    0.8663   13.2402 F   0  0  0  0  0  0  0  0  0  0  0  0
   33.2184   -0.3473   14.2657 C   0  0  0  0  0  0  0  0  0  0  0  0
   32.7834   -1.5113   14.9066 C   0  0  0  0  0  0  0  0  0  0  0  0
   33.6581   -2.6056   15.1596 C   0  0  0  0  0  0  0  0  0  0  0  0
 11 12  1  0
 12 13  1  0
 12 14  1  0
 12  5  1  0
  5  6  2  0
  6  7  1  0
  7  8  2  0
  8  1  1  0
  1  2  2  0
  1  3  1  0
  3 18  1  0
 18 19  1  0
 19 20  2  0
 19 21  1  0
 21 24  1  0
 24 25  2  0
 25 26  1  0
 26 27  2  0
 27 28  1  0
 28 29  2  0
 29 30  1  0
 30 31  1  0
 30 32  2  0
 32 33  1  0
 33 34  2  0
  8  9  1  0
  9 10  2  0
 10 15  1  0
 15 16  2  0
 15 17  1  0
 10  5  1  0
 34 24  1  0
 34 28  1  0
  3  4  1  0
 18 22  1  0
 21 23  1  0
M  CHG 1  15   1
M  CHG 1  17  -1
M  END
> <minimizedAffinity>
-6.72798

> <CNNscore>
0.5184801817

> <CNNaffinity>
6.4168262482

> <CNN_VS>
3.3269972801

> <CNNaffinity_variance>
0.4604986608

$$$$



 34 36  0  0  0  0  0  0  0  0999 V2000
   30.3456   -6.1136   26.5304 C   0  0  0  0  0  0  0  0  0  0  0  0
   30.1497   -6.7822   27.5441 O   0  0  0  0  0  0  0  0  0  0  0  0
   31.6199   -5.7979   26.0953 N   0  0  0  0  0  0  0  0  0  0  0  0
   31.7866   -5.3851   25.2172 H   0  0  0  0  0  0  0  0  0  0  0  0
   26.9652   -4.4660   24.3120 C   0  0  0  0  0  0  0  0  0  0  0  0
   27.3327   -4.0287   25.6049 C   0  0  0  0  0  0  0  0  0  0  0  0
   28.4263   -4.5657   26.3016 C   0  0  0  0  0  0  0  0  0  0  0  0
   29.2071   -5.5750   25.7391 C   0  0  0  0  0  0  0  0  0  0  0  0
   28.8655   -6.0655   24.4821 C   0  0  0  0  0  0  0  0  0  0  0  0
   27.7601   -5.5181   23.7943 C   0  0  0  0  0  0  0  0  0  0  0  0
   25.1554   -2.6114   24.3750 C   0  0  0  0  0  0  0  0  0  0  0  0
   25.7483   -3.8142   23.6063 C   0  0  0  0  0  0  0  0  0  0  0  0
   26.1680   -3.3644   22.1908 C   0  0  0  0  0  0  0  0  0  0  0  0
   24.5591   -4.8014   23.4323 C   0  0  0  0  0  0  0  0  0  0  0  0
   27.4892   -6.1504   22.5184 N   0  0  0  0  0  0  0  0  0  0  0  0
   26.6822   -7.0879   22.5233 O   0  0  0  0  0  0  0  0  0  0  0  0
   28.0316   -5.6593   21.5218 O   0  0  0  0  0  0  0  0  0  0  0  0
   32.6724   -6.1079   26.9973 N   0  0  0  0  0  0  0  0  0  0  0  0
   33.5723   -7.0773   26.5590 C   0  0  0  0  0  0  0  0  0  0  0  0
   33.3403   -7.7489   25.5591 O   0  0  0  0  0  0  0  0  0  0  0  0
   34.6612   -7.1515   27.4008 N   0  0  0  0  0  0  0  0  0  0  0  0
   32.7602   -5.6674   27.8734 H   0  0  0  0  0  0  0  0  0  0  0  0
   34.6279   -6.5680   28.1930 H   0  0  0  0  0  0  0  0  0  0  0  0
   35.8233   -7.9555   27.2790 C   0  0  0  0  0  0  0  0  0  0  0  0
   36.0314   -9.0569   28.1203 C   0  0  0  0  0  0  0  0  0  0  0  0
   37.1675   -9.8529   27.9940 C   0  0  0  0  0  0  0  0  0  0  0  0
   38.1143   -9.5654   27.0190 C   0  0  0  0  0  0  0  0  0  0  0  0
   37.9421   -8.4779   26.1540 C   0  0  0  0  0  0  0  0  0  0  0  0
   38.9161   -8.2223   25.1764 C   0  0  0  0  0  0  0  0  0  0  0  0
   38.7718   -7.1544   24.3028 C   0  0  0  0  0  0  0  0  0  0  0  0
   39.7034   -6.9320   23.3645 F   0  0  0  0  0  0  0  0  0  0  0  0
   37.6702   -6.3227   24.3779 C   0  0  0  0  0  0  0  0  0  0  0  0
   36.6928   -6.5631   25.3483 C   0  0  0  0  0  0  0  0  0  0  0  0
   36.7908   -7.6467   26.2663 C   0  0  0  0  0  0  0  0  0  0  0  0
 11 12  1  0
 12 13  1  0
 12 14  1  0
 12  5  1  0
  5  6  2  0
  6  7  1  0
  7  8  2  0
  8  1  1  0
  1  2  2  0
  1  3  1  0
  3 18  1  0
 18 19  1  0
 19 20  2  0
 19 21  1  0
 21 24  1  0
 24 25  2  0
 25 26  1  0
 26 27  2  0
 27 28  1  0
 28 29  2  0
 29 30  1  0
 30 31  1  0
 30 32  2  0
 32 33  1  0
 33 34  2  0
  8  9  1  0
  9 10  2  0
 10 15  1  0
 15 16  2  0
 15 17  1  0
 10  5  1  0
 34 24  1  0
 34 28  1  0
  3  4  1  0
 18 22  1  0
 21 23  1  0
M  CHG 1  15   1
M  CHG 1  17  -1
M  END
> <minimizedAffinity>
-6.08601

> <CNNscore>
0.5045118928

> <CNNaffinity>
5.9657196999

> <CNN_VS>
3.0097765923

> <CNNaffinity_variance>
0.6177088618

$$$$



 34 36  0  0  0  0  0  0  0  0999 V2000
   29.9552   -5.6316   20.0168 C   0  0  0  0  0  0  0  0  0  0  0  0
   30.5256   -6.7199   19.9593 O   0  0  0  0  0  0  0  0  0  0  0  0
   30.1288   -4.6608   19.0473 N   0  0  0  0  0  0  0  0  0  0  0  0
   29.5736   -3.8484   19.0137 H   0  0  0  0  0  0  0  0  0  0  0  0
   27.3316   -4.5243   23.3265 C   0  0  0  0  0  0  0  0  0  0  0  0
   27.3653   -3.8291   22.0964 C   0  0  0  0  0  0  0  0  0  0  0  0
   28.2113   -4.2024   21.0405 C   0  0  0  0  0  0  0  0  0  0  0  0
   29.0731   -5.2916   21.1652 C   0  0  0  0  0  0  0  0  0  0  0  0
   29.1036   -5.9882   22.3697 C   0  0  0  0  0  0  0  0  0  0  0  0
   28.2494   -5.5989   23.4249 C   0  0  0  0  0  0  0  0  0  0  0  0
   27.0550   -3.7750   25.7925 C   0  0  0  0  0  0  0  0  0  0  0  0
   26.3609   -4.0530   24.4397 C   0  0  0  0  0  0  0  0  0  0  0  0
   25.6297   -2.7795   23.9648 C   0  0  0  0  0  0  0  0  0  0  0  0
   25.2653   -5.1085   24.7634 C   0  0  0  0  0  0  0  0  0  0  0  0
   28.4156   -6.3795   24.6350 N   0  0  0  0  0  0  0  0  0  0  0  0
   29.2512   -5.9696   25.4499 O   0  0  0  0  0  0  0  0  0  0  0  0
   27.6634   -7.3490   24.7857 O   0  0  0  0  0  0  0  0  0  0  0  0
   31.1600   -4.9116   18.1032 N   0  0  0  0  0  0  0  0  0  0  0  0
   31.8410   -3.7855   17.6451 C   0  0  0  0  0  0  0  0  0  0  0  0
   31.4312   -2.6558   17.8909 O   0  0  0  0  0  0  0  0  0  0  0  0
   32.9471   -4.1482   16.9071 N   0  0  0  0  0  0  0  0  0  0  0  0
   31.3789   -5.8200   17.7933 H   0  0  0  0  0  0  0  0  0  0  0  0
   33.0680   -5.1153   16.7678 H   0  0  0  0  0  0  0  0  0  0  0  0
   33.9345   -3.3155   16.3212 C   0  0  0  0  0  0  0  0  0  0  0  0
   33.6678   -2.5915   15.1512 C   0  0  0  0  0  0  0  0  0  0  0  0
   34.6338   -1.7655   14.5814 C   0  0  0  0  0  0  0  0  0  0  0  0
   35.8837   -1.6435   15.1753 C   0  0  0  0  0  0  0  0  0  0  0  0
   36.1894   -2.3445   16.3481 C   0  0  0  0  0  0  0  0  0  0  0  0
   37.4601   -2.1909   16.9238 C   0  0  0  0  0  0  0  0  0  0  0  0
   37.7914   -2.8697   18.0874 C   0  0  0  0  0  0  0  0  0  0  0  0
   39.0042   -2.7010   18.6335 F   0  0  0  0  0  0  0  0  0  0  0  0
   36.8802   -3.7090   18.7007 C   0  0  0  0  0  0  0  0  0  0  0  0
   35.6111   -3.8743   18.1375 C   0  0  0  0  0  0  0  0  0  0  0  0
   35.2196   -3.1987   16.9472 C   0  0  0  0  0  0  0  0  0  0  0  0
 11 12  1  0
 12 13  1  0
 12 14  1  0
 12  5  1  0
  5  6  2  0
  6  7  1  0
  7  8  2  0
  8  1  1  0
  1  2  2  0
  1  3  1  0
  3 18  1  0
 18 19  1  0
 19 20  2  0
 19 21  1  0
 21 24  1  0
 24 25  2  0
 25 26  1  0
 26 27  2  0
 27 28  1  0
 28 29  2  0
 29 30  1  0
 30 31  1  0
 30 32  2  0
 32 33  1  0
 33 34  2  0
  8  9  1  0
  9 10  2  0
 10 15  1  0
 15 16  2  0
 15 17  1  0
 10  5  1  0
 34 24  1  0
 34 28  1  0
  3  4  1  0
 18 22  1  0
 21 23  1  0
M  CHG 1  15   1
M  CHG 1  17  -1
M  END
> <minimizedAffinity>
-6.53069

> <CNNscore>
0.4969569445

> <CNNaffinity>
6.1762275696

> <CNN_VS>
3.0693192482

> <CNNaffinity_variance>
0.3149751127

$$$$



 34 36  0  0  0  0  0  0  0  0999 V2000
   29.6426   -4.7620   19.8601 C   0  0  0  0  0  0  0  0  0  0  0  0
   30.3716   -5.7386   19.6937 O   0  0  0  0  0  0  0  0  0  0  0  0
   29.5553   -3.7448   18.9271 N   0  0  0  0  0  0  0  0  0  0  0  0
   28.8761   -3.0347   18.9879 H   0  0  0  0  0  0  0  0  0  0  0  0
   27.2378   -4.2094   23.4622 C   0  0  0  0  0  0  0  0  0  0  0  0
   27.0503   -3.4570   22.2805 C   0  0  0  0  0  0  0  0  0  0  0  0
   27.8291   -3.6518   21.1292 C   0  0  0  0  0  0  0  0  0  0  0  0
   28.8421   -4.6098   21.1045 C   0  0  0  0  0  0  0  0  0  0  0  0
   29.0906   -5.3531   22.2548 C   0  0  0  0  0  0  0  0  0  0  0  0
   28.3013   -5.1436   23.4071 C   0  0  0  0  0  0  0  0  0  0  0  0
   27.1099   -3.6349   25.9866 C   0  0  0  0  0  0  0  0  0  0  0  0
   26.3283   -3.9387   24.6882 C   0  0  0  0  0  0  0  0  0  0  0  0
   25.3864   -2.7592   24.3662 C   0  0  0  0  0  0  0  0  0  0  0  0
   25.4248   -5.1543   25.0420 C   0  0  0  0  0  0  0  0  0  0  0  0
   28.6956   -5.9505   24.5449 N   0  0  0  0  0  0  0  0  0  0  0  0
   29.5567   -5.4722   25.2933 O   0  0  0  0  0  0  0  0  0  0  0  0
   28.0927   -7.0165   24.7134 O   0  0  0  0  0  0  0  0  0  0  0  0
   30.5091   -3.7909   17.8755 N   0  0  0  0  0  0  0  0  0  0  0  0
   29.9959   -4.0781   16.6122 C   0  0  0  0  0  0  0  0  0  0  0  0
   28.8396   -4.4629   16.4724 O   0  0  0  0  0  0  0  0  0  0  0  0
   30.9547   -3.8913   15.6398 N   0  0  0  0  0  0  0  0  0  0  0  0
   31.4683   -3.6308   18.0290 H   0  0  0  0  0  0  0  0  0  0  0  0
   31.8492   -3.6409   15.9659 H   0  0  0  0  0  0  0  0  0  0  0  0
   30.8257   -4.0114   14.2325 C   0  0  0  0  0  0  0  0  0  0  0  0
   30.3221   -2.9558   13.4603 C   0  0  0  0  0  0  0  0  0  0  0  0
   30.2050   -3.0696   12.0770 C   0  0  0  0  0  0  0  0  0  0  0  0
   30.5956   -4.2402   11.4392 C   0  0  0  0  0  0  0  0  0  0  0  0
   31.1095   -5.3166   12.1725 C   0  0  0  0  0  0  0  0  0  0  0  0
   31.5006   -6.4808   11.4931 C   0  0  0  0  0  0  0  0  0  0  0  0
   32.0164   -7.5626   12.1918 C   0  0  0  0  0  0  0  0  0  0  0  0
   32.3995   -8.6621   11.5270 F   0  0  0  0  0  0  0  0  0  0  0  0
   32.1541   -7.5164   13.5665 C   0  0  0  0  0  0  0  0  0  0  0  0
   31.7664   -6.3644   14.2574 C   0  0  0  0  0  0  0  0  0  0  0  0
   31.2348   -5.2258   13.5884 C   0  0  0  0  0  0  0  0  0  0  0  0
 11 12  1  0
 12 13  1  0
 12 14  1  0
 12  5  1  0
  5  6  2  0
  6  7  1  0
  7  8  2  0
  8  1  1  0
  1  2  2  0
  1  3  1  0
  3 18  1  0
 18 19  1  0
 19 20  2  0
 19 21  1  0
 21 24  1  0
 24 25  2  0
 25 26  1  0
 26 27  2  0
 27 28  1  0
 28 29  2  0
 29 30  1  0
 30 31  1  0
 30 32  2  0
 32 33  1  0
 33 34  2  0
  8  9  1  0
  9 10  2  0
 10 15  1  0
 15 16  2  0
 15 17  1  0
 10  5  1  0
 34 24  1  0
 34 28  1  0
  3  4  1  0
 18 22  1  0
 21 23  1  0
M  CHG 1  15   1
M  CHG 1  17  -1
M  END
> <minimizedAffinity>
-6.87758

> <CNNscore>
0.4906989634

> <CNNaffinity>
6.2587180138

> <CNN_VS>
3.0711464882

> <CNNaffinity_variance>
0.6452095509

$$$$



 34 36  0  0  0  0  0  0  0  0999 V2000
   30.1583   -3.6587   17.2404 C   0  0  0  0  0  0  0  0  0  0  0  0
   29.1349   -3.9669   16.6315 O   0  0  0  0  0  0  0  0  0  0  0  0
   30.2476   -3.7498   18.6176 N   0  0  0  0  0  0  0  0  0  0  0  0
   31.1007   -3.6383   19.0960 H   0  0  0  0  0  0  0  0  0  0  0  0
   33.6198   -2.1888   15.0221 C   0  0  0  0  0  0  0  0  0  0  0  0
   32.6453   -3.0459   14.4619 C   0  0  0  0  0  0  0  0  0  0  0  0
   31.5353   -3.5045   15.1881 C   0  0  0  0  0  0  0  0  0  0  0  0
   31.3468   -3.1308   16.5184 C   0  0  0  0  0  0  0  0  0  0  0  0
   32.2969   -2.3163   17.1274 C   0  0  0  0  0  0  0  0  0  0  0  0
   33.4109   -1.8656   16.3854 C   0  0  0  0  0  0  0  0  0  0  0  0
   36.1675   -2.3329   14.5673 C   0  0  0  0  0  0  0  0  0  0  0  0
   34.8119   -1.7198   14.1489 C   0  0  0  0  0  0  0  0  0  0  0  0
   34.5231   -2.0674   12.6731 C   0  0  0  0  0  0  0  0  0  0  0  0
   35.0325   -0.1816   14.2155 C   0  0  0  0  0  0  0  0  0  0  0  0
   34.3433   -1.0636   17.1526 N   0  0  0  0  0  0  0  0  0  0  0  0
   34.0200    0.1111   17.3670 O   0  0  0  0  0  0  0  0  0  0  0  0
   35.3498   -1.6347   17.5875 O   0  0  0  0  0  0  0  0  0  0  0  0
   29.0285   -4.0146   19.2969 N   0  0  0  0  0  0  0  0  0  0  0  0
   29.1317   -4.8401   20.4148 C   0  0  0  0  0  0  0  0  0  0  0  0
   30.1685   -5.4492   20.6570 O   0  0  0  0  0  0  0  0  0  0  0  0
   27.9468   -4.8624   21.1185 N   0  0  0  0  0  0  0  0  0  0  0  0
   28.1685   -3.6401   18.9980 H   0  0  0  0  0  0  0  0  0  0  0  0
   27.2048   -4.3527   20.7199 H   0  0  0  0  0  0  0  0  0  0  0  0
   27.6528   -5.5210   22.3398 C   0  0  0  0  0  0  0  0  0  0  0  0
   27.5353   -6.9163   22.3983 C   0  0  0  0  0  0  0  0  0  0  0  0
   27.2570   -7.5642   23.5995 C   0  0  0  0  0  0  0  0  0  0  0  0
   27.0968   -6.8281   24.7667 C   0  0  0  0  0  0  0  0  0  0  0  0
   27.2119   -5.4328   24.7534 C   0  0  0  0  0  0  0  0  0  0  0  0
   27.0510   -4.7230   25.9535 C   0  0  0  0  0  0  0  0  0  0  0  0
   27.1626   -3.3404   25.9727 C   0  0  0  0  0  0  0  0  0  0  0  0
   27.0209   -2.6777   27.1296 F   0  0  0  0  0  0  0  0  0  0  0  0
   27.4325   -2.6362   24.8142 C   0  0  0  0  0  0  0  0  0  0  0  0
   27.5929   -3.3292   23.6105 C   0  0  0  0  0  0  0  0  0  0  0  0
   27.4918   -4.7472   23.5366 C   0  0  0  0  0  0  0  0  0  0  0  0
 11 12  1  0
 12 13  1  0
 12 14  1  0
 12  5  1  0
  5  6  2  0
  6  7  1  0
  7  8  2  0
  8  1  1  0
  1  2  2  0
  1  3  1  0
  3 18  1  0
 18 19  1  0
 19 20  2  0
 19 21  1  0
 21 24  1  0
 24 25  2  0
 25 26  1  0
 26 27  2  0
 27 28  1  0
 28 29  2  0
 29 30  1  0
 30 31  1  0
 30 32  2  0
 32 33  1  0
 33 34  2  0
  8  9  1  0
  9 10  2  0
 10 15  1  0
 15 16  2  0
 15 17  1  0
 10  5  1  0
 34 24  1  0
 34 28  1  0
  3  4  1  0
 18 22  1  0
 21 23  1  0
M  CHG 1  15   1
M  CHG 1  17  -1
M  END
> <minimizedAffinity>
-6.69861

> <CNNscore>
0.4339923263

> <CNNaffinity>
6.1415381432

> <CNN_VS>
2.6653804779

> <CNNaffinity_variance>
0.1673629284

$$$$



 34 36  0  0  0  0  0  0  0  0999 V2000
   30.0556   -4.0303   15.4383 C   0  0  0  0  0  0  0  0  0  0  0  0
   29.2262   -4.9229   15.2695 O   0  0  0  0  0  0  0  0  0  0  0  0
   30.2028   -3.3864   16.6534 N   0  0  0  0  0  0  0  0  0  0  0  0
   30.9514   -2.7731   16.8342 H   0  0  0  0  0  0  0  0  0  0  0  0
   32.5582   -2.7842   12.0845 C   0  0  0  0  0  0  0  0  0  0  0  0
   31.6274   -3.8451   12.0066 C   0  0  0  0  0  0  0  0  0  0  0  0
   30.8265   -4.2288   13.0934 C   0  0  0  0  0  0  0  0  0  0  0  0
   30.9210   -3.5706   14.3192 C   0  0  0  0  0  0  0  0  0  0  0  0
   31.8479   -2.5417   14.4584 C   0  0  0  0  0  0  0  0  0  0  0  0
   32.6498   -2.1689   13.3571 C   0  0  0  0  0  0  0  0  0  0  0  0
   34.9245   -2.4695   11.0744 C   0  0  0  0  0  0  0  0  0  0  0  0
   33.3985   -2.4169   10.8345 C   0  0  0  0  0  0  0  0  0  0  0  0
   33.0258   -3.3696    9.6789 C   0  0  0  0  0  0  0  0  0  0  0  0
   33.1235   -0.9703   10.3335 C   0  0  0  0  0  0  0  0  0  0  0  0
   33.6016   -1.1161   13.6521 N   0  0  0  0  0  0  0  0  0  0  0  0
   33.2331    0.0438   13.4311 O   0  0  0  0  0  0  0  0  0  0  0  0
   34.6748   -1.4563   14.1632 O   0  0  0  0  0  0  0  0  0  0  0  0
   29.2040   -3.6673   17.6235 N   0  0  0  0  0  0  0  0  0  0  0  0
   29.6717   -4.1522   18.8432 C   0  0  0  0  0  0  0  0  0  0  0  0
   30.8403   -4.4995   18.9789 O   0  0  0  0  0  0  0  0  0  0  0  0
   28.6583   -4.1902   19.7766 N   0  0  0  0  0  0  0  0  0  0  0  0
   28.2456   -3.5287   17.4459 H   0  0  0  0  0  0  0  0  0  0  0  0
   27.7674   -3.9287   19.4491 H   0  0  0  0  0  0  0  0  0  0  0  0
   28.7264   -4.5554   21.1454 C   0  0  0  0  0  0  0  0  0  0  0  0
   29.7334   -5.4087   21.6164 C   0  0  0  0  0  0  0  0  0  0  0  0
   29.8068   -5.7592   22.9624 C   0  0  0  0  0  0  0  0  0  0  0  0
   28.8769   -5.2575   23.8643 C   0  0  0  0  0  0  0  0  0  0  0  0
   27.8583   -4.3973   23.4365 C   0  0  0  0  0  0  0  0  0  0  0  0
   26.9410   -3.9043   24.3774 C   0  0  0  0  0  0  0  0  0  0  0  0
   25.9229   -3.0477   23.9846 C   0  0  0  0  0  0  0  0  0  0  0  0
   25.0634   -2.5733   24.8977 F   0  0  0  0  0  0  0  0  0  0  0  0
   25.7911   -2.6647   22.6629 C   0  0  0  0  0  0  0  0  0  0  0  0
   26.6957   -3.1497   21.7136 C   0  0  0  0  0  0  0  0  0  0  0  0
   27.7599   -4.0277   22.0644 C   0  0  0  0  0  0  0  0  0  0  0  0
 11 12  1  0
 12 13  1  0
 12 14  1  0
 12  5  1  0
  5  6  2  0
  6  7  1  0
  7  8  2  0
  8  1  1  0
  1  2  2  0
  1  3  1  0
  3 18  1  0
 18 19  1  0
 19 20  2  0
 19 21  1  0
 21 24  1  0
 24 25  2  0
 25 26  1  0
 26 27  2  0
 27 28  1  0
 28 29  2  0
 29 30  1  0
 30 31  1  0
 30 32  2  0
 32 33  1  0
 33 34  2  0
  8  9  1  0
  9 10  2  0
 10 15  1  0
 15 16  2  0
 15 17  1  0
 10  5  1  0
 34 24  1  0
 34 28  1  0
  3  4  1  0
 18 22  1  0
 21 23  1  0
M  CHG 1  15   1
M  CHG 1  17  -1
M  END
> <minimizedAffinity>
-6.79567

> <CNNscore>
0.4231486320

> <CNNaffinity>
6.0172519684

> <CNN_VS>
2.5461919308

> <CNNaffinity_variance>
0.0956538618

$$$$



 34 36  0  0  0  0  0  0  0  0999 V2000
   29.5729   -4.8285   19.6362 C   0  0  0  0  0  0  0  0  0  0  0  0
   30.3557   -5.7695   19.5150 O   0  0  0  0  0  0  0  0  0  0  0  0
   29.4071   -3.8801   18.6434 N   0  0  0  0  0  0  0  0  0  0  0  0
   28.6880   -3.2084   18.6749 H   0  0  0  0  0  0  0  0  0  0  0  0
   27.2141   -4.1829   23.2532 C   0  0  0  0  0  0  0  0  0  0  0  0
   26.9971   -3.4764   22.0483 C   0  0  0  0  0  0  0  0  0  0  0  0
   27.7615   -3.7008   20.8928 C   0  0  0  0  0  0  0  0  0  0  0  0
   28.7889   -4.6437   20.8867 C   0  0  0  0  0  0  0  0  0  0  0  0
   29.0662   -5.3412   22.0588 C   0  0  0  0  0  0  0  0  0  0  0  0
   28.2910   -5.1023   23.2150 C   0  0  0  0  0  0  0  0  0  0  0  0
   25.4025   -2.6511   24.2975 C   0  0  0  0  0  0  0  0  0  0  0  0
   26.3188   -3.8819   24.4827 C   0  0  0  0  0  0  0  0  0  0  0  0
   25.4567   -5.1236   24.7944 C   0  0  0  0  0  0  0  0  0  0  0  0
   27.1463   -3.5738   25.7631 C   0  0  0  0  0  0  0  0  0  0  0  0
   28.7149   -5.8617   24.3747 N   0  0  0  0  0  0  0  0  0  0  0  0
   29.5968   -5.3546   25.0786 O   0  0  0  0  0  0  0  0  0  0  0  0
   28.1151   -6.9181   24.6043 O   0  0  0  0  0  0  0  0  0  0  0  0
   30.3416   -3.9380   17.5751 N   0  0  0  0  0  0  0  0  0  0  0  0
   29.8576   -4.4730   16.3829 C   0  0  0  0  0  0  0  0  0  0  0  0
   28.7688   -5.0360   16.3390 O   0  0  0  0  0  0  0  0  0  0  0  0
   30.7638   -4.2907   15.3605 N   0  0  0  0  0  0  0  0  0  0  0  0
   31.2689   -3.6214   17.6706 H   0  0  0  0  0  0  0  0  0  0  0  0
   31.6164   -3.8704   15.6167 H   0  0  0  0  0  0  0  0  0  0  0  0
   30.6330   -4.6274   13.9889 C   0  0  0  0  0  0  0  0  0  0  0  0
   30.6510   -5.9640   13.5680 C   0  0  0  0  0  0  0  0  0  0  0  0
   30.5121   -6.2955   12.2223 C   0  0  0  0  0  0  0  0  0  0  0  0
   30.3464   -5.2954   11.2724 C   0  0  0  0  0  0  0  0  0  0  0  0
   30.3168   -3.9478   11.6510 C   0  0  0  0  0  0  0  0  0  0  0  0
   30.1404   -2.9652   10.6644 C   0  0  0  0  0  0  0  0  0  0  0  0
   30.1035   -1.6219   11.0089 C   0  0  0  0  0  0  0  0  0  0  0  0
   29.9194   -0.6959   10.0569 F   0  0  0  0  0  0  0  0  0  0  0  0
   30.2404   -1.2253   12.3261 C   0  0  0  0  0  0  0  0  0  0  0  0
   30.4194   -2.1924   13.3198 C   0  0  0  0  0  0  0  0  0  0  0  0
   30.4611   -3.5835   13.0205 C   0  0  0  0  0  0  0  0  0  0  0  0
 11 12  1  0
 12 13  1  0
 12 14  1  0
 12  5  1  0
  5  6  2  0
  6  7  1  0
  7  8  2  0
  8  1  1  0
  1  2  2  0
  1  3  1  0
  3 18  1  0
 18 19  1  0
 19 20  2  0
 19 21  1  0
 21 24  1  0
 24 25  2  0
 25 26  1  0
 26 27  2  0
 27 28  1  0
 28 29  2  0
 29 30  1  0
 30 31  1  0
 30 32  2  0
 32 33  1  0
 33 34  2  0
  8  9  1  0
  9 10  2  0
 10 15  1  0
 15 16  2  0
 15 17  1  0
 10  5  1  0
 34 24  1  0
 34 28  1  0
  3  4  1  0
 18 22  1  0
 21 23  1  0
M  CHG 1  15   1
M  CHG 1  17  -1
M  END
> <minimizedAffinity>
-6.93065

> <CNNscore>
0.4213464558

> <CNNaffinity>
6.0744743347

> <CNN_VS>
2.5594582558

> <CNNaffinity_variance>
0.5413163900

$$$$
