


 26 29  0  0  0  0  0  0  0  0999 V2000
   -6.0107    7.1710   24.8215 C   0  0  0  0  0  0  0  0  0  0  0  0
   -6.0388    8.3086   25.6403 C   0  0  0  0  0  0  0  0  0  0  0  0
   -6.7957    8.3164   26.8060 C   0  0  0  0  0  0  0  0  0  0  0  0
   -6.7918    9.4542   27.5587 O   0  0  0  0  0  0  0  0  0  0  0  0
   -7.5264    7.1974   27.1920 C   0  0  0  0  0  0  0  0  0  0  0  0
   -7.5049    6.0389   26.4005 C   0  0  0  0  0  0  0  0  0  0  0  0
   -6.7670    6.0488   25.2061 C   0  0  0  0  0  0  0  0  0  0  0  0
   -6.7207    4.9581   24.3734 O   0  0  0  0  0  0  0  0  0  0  0  0
   -7.9109    4.1603   24.4286 C   0  0  0  0  0  0  0  0  0  0  0  0
   -8.1654    3.6459   25.8459 C   0  0  0  0  0  0  0  0  0  0  0  0
   -7.0665    2.7562   26.4359 C   0  0  0  0  0  0  0  0  0  0  0  0
   -7.3752    2.7945   27.9214 C   0  0  0  0  0  0  0  0  0  0  0  0
   -7.7471    4.2490   28.1844 C   0  0  0  0  0  0  0  0  0  0  0  0
   -8.2689    4.8120   26.8449 C   0  0  0  0  0  0  0  0  0  0  0  0
   -6.2931   10.1975   27.2816 H   0  0  0  0  0  0  0  0  0  0  0  0
   -7.8217    3.0271   23.4172 C   0  0  0  0  0  0  0  0  0  0  0  0
   -8.9244    2.1770   23.2277 C   0  0  0  0  0  0  0  0  0  0  0  0
   -8.8595    1.1191   22.3194 C   0  0  0  0  0  0  0  0  0  0  0  0
   -7.6930    0.9016   21.5977 C   0  0  0  0  0  0  0  0  0  0  0  0
   -7.6726   -0.1438   20.7230 O   0  0  0  0  0  0  0  0  0  0  0  0
   -6.5863    1.7256   21.7687 C   0  0  0  0  0  0  0  0  0  0  0  0
   -6.6519    2.7845   22.6778 C   0  0  0  0  0  0  0  0  0  0  0  0
   -8.4300   -0.6864   20.6236 H   0  0  0  0  0  0  0  0  0  0  0  0
   -5.2042    7.1245   23.5435 C   0  0  0  0  0  0  0  0  0  0  0  0
   -6.6430    7.5498   21.7282 C   0  0  0  0  0  0  0  0  0  0  0  0
   -5.6520    8.0909   22.5896 O   0  0  0  0  0  0  0  0  0  0  0  0
 25 26  1  0
 26 24  1  0
 24  1  1  0
  1  2  2  0
  2  3  1  0
  3  4  1  0
  3  5  2  0
  5  6  1  0
  6  7  2  0
  7  8  1  0
  8  9  1  0
  9 16  1  0
 16 17  2  0
 17 18  1  0
 18 19  2  0
 19 20  1  0
 19 21  1  0
 21 22  2  0
  9 10  1  0
 10 11  1  0
 11 12  1  0
 12 13  1  0
 14 13  1  0
  7  1  1  0
 22 16  1  0
 14 10  1  0
 14  6  1  0
  4 15  1  0
 20 23  1  0
M  END
> <minimizedAffinity>
-9.96337

> <CNNscore>
0.9486019015

> <CNNaffinity>
7.7563977242

> <CNN_VS>
7.3577337265

> <CNNaffinity_variance>
0.4466830492

$$$$



 26 29  0  0  0  0  0  0  0  0999 V2000
   -7.9513    6.2103   26.4693 C   0  0  0  0  0  0  0  0  0  0  0  0
   -7.6361    7.3334   27.2468 C   0  0  0  0  0  0  0  0  0  0  0  0
   -6.5674    8.1512   26.8987 C   0  0  0  0  0  0  0  0  0  0  0  0
   -6.3025    9.2250   27.6975 O   0  0  0  0  0  0  0  0  0  0  0  0
   -5.8002    7.8839   25.7697 C   0  0  0  0  0  0  0  0  0  0  0  0
   -6.1018    6.7756   24.9635 C   0  0  0  0  0  0  0  0  0  0  0  0
   -7.1601    5.9331   25.3396 C   0  0  0  0  0  0  0  0  0  0  0  0
   -7.4949    4.8196   24.6093 O   0  0  0  0  0  0  0  0  0  0  0  0
   -6.3747    4.2386   23.9284 C   0  0  0  0  0  0  0  0  0  0  0  0
   -5.7314    5.2407   22.9692 C   0  0  0  0  0  0  0  0  0  0  0  0
   -6.6400    5.7689   21.8544 C   0  0  0  0  0  0  0  0  0  0  0  0
   -5.9027    7.0122   21.3913 C   0  0  0  0  0  0  0  0  0  0  0  0
   -5.4121    7.6540   22.6838 C   0  0  0  0  0  0  0  0  0  0  0  0
   -5.2896    6.5121   23.7155 C   0  0  0  0  0  0  0  0  0  0  0  0
   -6.8310    9.3881   28.4538 H   0  0  0  0  0  0  0  0  0  0  0  0
   -6.8052    2.9638   23.2181 C   0  0  0  0  0  0  0  0  0  0  0  0
   -6.1752    2.5904   22.0188 C   0  0  0  0  0  0  0  0  0  0  0  0
   -6.5661    1.4354   21.3393 C   0  0  0  0  0  0  0  0  0  0  0  0
   -7.5897    0.6486   21.8510 C   0  0  0  0  0  0  0  0  0  0  0  0
   -7.9406   -0.4695   21.1543 O   0  0  0  0  0  0  0  0  0  0  0  0
   -8.2319    0.9970   23.0337 C   0  0  0  0  0  0  0  0  0  0  0  0
   -7.8402    2.1531   23.7136 C   0  0  0  0  0  0  0  0  0  0  0  0
   -7.4942   -0.6854   20.3592 H   0  0  0  0  0  0  0  0  0  0  0  0
   -9.1021    5.2936   26.8171 C   0  0  0  0  0  0  0  0  0  0  0  0
   -7.9103    4.1132   28.4702 C   0  0  0  0  0  0  0  0  0  0  0  0
   -8.6526    4.0118   27.2637 O   0  0  0  0  0  0  0  0  0  0  0  0
 25 26  1  0
 26 24  1  0
 24  1  1  0
  1  2  2  0
  2  3  1  0
  3  4  1  0
  3  5  2  0
  5  6  1  0
  6  7  2  0
  7  8  1  0
  8  9  1  0
  9 16  1  0
 16 17  2  0
 17 18  1  0
 18 19  2  0
 19 20  1  0
 19 21  1  0
 21 22  2  0
  9 10  1  0
 10 11  1  0
 11 12  1  0
 12 13  1  0
 14 13  1  0
  7  1  1  0
 22 16  1  0
 14 10  1  0
 14  6  1  0
  4 15  1  0
 20 23  1  0
M  END
> <minimizedAffinity>
-10.01974

> <CNNscore>
0.9354243875

> <CNNaffinity>
7.6907544136

> <CNN_VS>
7.1941194534

> <CNNaffinity_variance>
0.3826774359

$$$$



 26 29  0  0  0  0  0  0  0  0999 V2000
   -6.6278    5.9537   26.4611 C   0  0  0  0  0  0  0  0  0  0  0  0
   -6.0922    7.0546   27.1440 C   0  0  0  0  0  0  0  0  0  0  0  0
   -5.2702    7.9595   26.4825 C   0  0  0  0  0  0  0  0  0  0  0  0
   -4.7709    9.0068   27.2002 O   0  0  0  0  0  0  0  0  0  0  0  0
   -4.9742    7.8024   25.1325 C   0  0  0  0  0  0  0  0  0  0  0  0
   -5.5087    6.7187   24.4190 C   0  0  0  0  0  0  0  0  0  0  0  0
   -6.3094    5.7885   25.1008 C   0  0  0  0  0  0  0  0  0  0  0  0
   -6.8459    4.6934   24.4696 O   0  0  0  0  0  0  0  0  0  0  0  0
   -6.0406    4.2249   23.3795 C   0  0  0  0  0  0  0  0  0  0  0  0
   -5.8506    5.3157   22.3249 C   0  0  0  0  0  0  0  0  0  0  0  0
   -7.1344    5.8372   21.6714 C   0  0  0  0  0  0  0  0  0  0  0  0
   -6.6810    7.1495   21.0580 C   0  0  0  0  0  0  0  0  0  0  0  0
   -5.7679    7.7565   22.1168 C   0  0  0  0  0  0  0  0  0  0  0  0
   -5.2160    6.5745   22.9425 C   0  0  0  0  0  0  0  0  0  0  0  0
   -4.9821    9.0951   28.1088 H   0  0  0  0  0  0  0  0  0  0  0  0
   -6.6510    2.9617   22.7908 C   0  0  0  0  0  0  0  0  0  0  0  0
   -7.7800    2.3873   23.3992 C   0  0  0  0  0  0  0  0  0  0  0  0
   -8.3461    1.2181   22.8884 C   0  0  0  0  0  0  0  0  0  0  0  0
   -7.7868    0.6138   21.7701 C   0  0  0  0  0  0  0  0  0  0  0  0
   -8.3704   -0.5275   21.3059 O   0  0  0  0  0  0  0  0  0  0  0  0
   -6.6678    1.1592   21.1512 C   0  0  0  0  0  0  0  0  0  0  0  0
   -6.1017    2.3298   21.6626 C   0  0  0  0  0  0  0  0  0  0  0  0
   -9.1241   -0.8777   21.7386 H   0  0  0  0  0  0  0  0  0  0  0  0
   -7.5215    4.9447   27.1458 C   0  0  0  0  0  0  0  0  0  0  0  0
   -9.3764    6.3162   26.6717 C   0  0  0  0  0  0  0  0  0  0  0  0
   -8.8628    4.9923   26.6527 O   0  0  0  0  0  0  0  0  0  0  0  0
 25 26  1  0
 26 24  1  0
 24  1  1  0
  1  2  2  0
  2  3  1  0
  3  4  1  0
  3  5  2  0
  5  6  1  0
  6  7  2  0
  7  8  1  0
  8  9  1  0
  9 16  1  0
 16 17  2  0
 17 18  1  0
 18 19  2  0
 19 20  1  0
 19 21  1  0
 21 22  2  0
  9 10  1  0
 10 11  1  0
 11 12  1  0
 12 13  1  0
 14 13  1  0
  7  1  1  0
 22 16  1  0
 14 10  1  0
 14  6  1  0
  4 15  1  0
 20 23  1  0
M  END
> <minimizedAffinity>
-9.28686

> <CNNscore>
0.8650568128

> <CNNaffinity>
7.4485306740

> <CNN_VS>
6.4434022903

> <CNNaffinity_variance>
0.2114951611

$$$$



 26 29  0  0  0  0  0  0  0  0999 V2000
   -6.1870    3.9518   26.9038 C   0  0  0  0  0  0  0  0  0  0  0  0
   -5.2841    4.6900   27.6817 C   0  0  0  0  0  0  0  0  0  0  0  0
   -4.4973    5.6763   27.0984 C   0  0  0  0  0  0  0  0  0  0  0  0
   -3.6304    6.3562   27.9031 O   0  0  0  0  0  0  0  0  0  0  0  0
   -4.5979    5.9617   25.7407 C   0  0  0  0  0  0  0  0  0  0  0  0
   -5.5042    5.2500   24.9400 C   0  0  0  0  0  0  0  0  0  0  0  0
   -6.2708    4.2309   25.5274 C   0  0  0  0  0  0  0  0  0  0  0  0
   -7.1599    3.4806   24.7983 O   0  0  0  0  0  0  0  0  0  0  0  0
   -6.7744    3.3332   23.4250 C   0  0  0  0  0  0  0  0  0  0  0  0
   -6.6493    4.6935   22.7378 C   0  0  0  0  0  0  0  0  0  0  0  0
   -7.9272    5.5377   22.7004 C   0  0  0  0  0  0  0  0  0  0  0  0
   -7.3948    6.9261   22.3959 C   0  0  0  0  0  0  0  0  0  0  0  0
   -6.1368    7.0351   23.2495 C   0  0  0  0  0  0  0  0  0  0  0  0
   -5.6382    5.5912   23.4730 C   0  0  0  0  0  0  0  0  0  0  0  0
   -3.5774    6.1490   28.8153 H   0  0  0  0  0  0  0  0  0  0  0  0
   -7.7561    2.4190   22.7071 C   0  0  0  0  0  0  0  0  0  0  0  0
   -7.3562    1.7534   21.5360 C   0  0  0  0  0  0  0  0  0  0  0  0
   -8.2452    0.9245   20.8497 C   0  0  0  0  0  0  0  0  0  0  0  0
   -9.5390    0.7579   21.3263 C   0  0  0  0  0  0  0  0  0  0  0  0
  -10.3745   -0.0590   20.6240 O   0  0  0  0  0  0  0  0  0  0  0  0
   -9.9614    1.4075   22.4806 C   0  0  0  0  0  0  0  0  0  0  0  0
   -9.0711    2.2368   23.1673 C   0  0  0  0  0  0  0  0  0  0  0  0
  -10.0688   -0.4869   19.8485 H   0  0  0  0  0  0  0  0  0  0  0  0
   -7.0564    2.8678   27.4993 C   0  0  0  0  0  0  0  0  0  0  0  0
   -8.4545    4.1280   28.9149 C   0  0  0  0  0  0  0  0  0  0  0  0
   -7.4226    3.1543   28.8514 O   0  0  0  0  0  0  0  0  0  0  0  0
 25 26  1  0
 26 24  1  0
 24  1  1  0
  1  2  2  0
  2  3  1  0
  3  4  1  0
  3  5  2  0
  5  6  1  0
  6  7  2  0
  7  8  1  0
  8  9  1  0
  9 16  1  0
 16 17  2  0
 17 18  1  0
 18 19  2  0
 19 20  1  0
 19 21  1  0
 21 22  2  0
  9 10  1  0
 10 11  1  0
 11 12  1  0
 12 13  1  0
 14 13  1  0
  7  1  1  0
 22 16  1  0
 14 10  1  0
 14  6  1  0
  4 15  1  0
 20 23  1  0
M  END
> <minimizedAffinity>
-7.54246

> <CNNscore>
0.7842397690

> <CNNaffinity>
7.7097129822

> <CNN_VS>
6.0462636948

> <CNNaffinity_variance>
0.7260834575

$$$$



 26 29  0  0  0  0  0  0  0  0999 V2000
    3.5243    7.2918   31.9273 C   0  0  0  0  0  0  0  0  0  0  0  0
    3.9879    8.2153   30.9801 C   0  0  0  0  0  0  0  0  0  0  0  0
    4.8674    7.8152   29.9808 C   0  0  0  0  0  0  0  0  0  0  0  0
    5.2917    8.7594   29.0922 O   0  0  0  0  0  0  0  0  0  0  0  0
    5.2932    6.4941   29.8896 C   0  0  0  0  0  0  0  0  0  0  0  0
    4.8336    5.5439   30.8143 C   0  0  0  0  0  0  0  0  0  0  0  0
    3.9734    5.9612   31.8425 C   0  0  0  0  0  0  0  0  0  0  0  0
    3.5038    5.0892   32.7935 O   0  0  0  0  0  0  0  0  0  0  0  0
    4.4123    4.0132   33.0641 C   0  0  0  0  0  0  0  0  0  0  0  0
    4.7002    3.2027   31.7999 C   0  0  0  0  0  0  0  0  0  0  0  0
    3.4842    2.5376   31.1471 C   0  0  0  0  0  0  0  0  0  0  0  0
    3.9909    2.2250   29.7509 C   0  0  0  0  0  0  0  0  0  0  0  0
    4.7953    3.4606   29.3643 C   0  0  0  0  0  0  0  0  0  0  0  0
    5.2682    4.1013   30.6869 C   0  0  0  0  0  0  0  0  0  0  0  0
    4.9933    9.6442   29.1706 H   0  0  0  0  0  0  0  0  0  0  0  0
    3.8655    3.1444   34.1872 C   0  0  0  0  0  0  0  0  0  0  0  0
    4.2738    1.8037   34.2896 C   0  0  0  0  0  0  0  0  0  0  0  0
    3.7713    0.9821   35.3000 C   0  0  0  0  0  0  0  0  0  0  0  0
    2.8564    1.4927   36.2115 C   0  0  0  0  0  0  0  0  0  0  0  0
    2.3900    0.6550   37.1807 O   0  0  0  0  0  0  0  0  0  0  0  0
    2.4331    2.8145   36.1306 C   0  0  0  0  0  0  0  0  0  0  0  0
    2.9366    3.6366   35.1193 C   0  0  0  0  0  0  0  0  0  0  0  0
    2.6889   -0.2323   37.2166 H   0  0  0  0  0  0  0  0  0  0  0  0
    2.5715    7.6883   33.0321 C   0  0  0  0  0  0  0  0  0  0  0  0
    4.0556    8.9362   34.3686 C   0  0  0  0  0  0  0  0  0  0  0  0
    2.8804    8.9756   33.5723 O   0  0  0  0  0  0  0  0  0  0  0  0
 25 26  1  0
 26 24  1  0
 24  1  1  0
  1  2  2  0
  2  3  1  0
  3  4  1  0
  3  5  2  0
  5  6  1  0
  6  7  2  0
  7  8  1  0
  8  9  1  0
  9 16  1  0
 16 17  2  0
 17 18  1  0
 18 19  2  0
 19 20  1  0
 19 21  1  0
 21 22  2  0
  9 10  1  0
 10 11  1  0
 11 12  1  0
 12 13  1  0
 14 13  1  0
  7  1  1  0
 22 16  1  0
 14 10  1  0
 14  6  1  0
  4 15  1  0
 20 23  1  0
M  END
> <minimizedAffinity>
-4.12818

> <CNNscore>
0.6157202125

> <CNNaffinity>
5.2050013542

> <CNN_VS>
3.2048244476

> <CNNaffinity_variance>
0.0686309114

$$$$



 26 29  0  0  0  0  0  0  0  0999 V2000
   -6.7887    2.9328   22.1333 C   0  0  0  0  0  0  0  0  0  0  0  0
   -7.2860    1.6357   21.9447 C   0  0  0  0  0  0  0  0  0  0  0  0
   -7.8228    0.9270   23.0132 C   0  0  0  0  0  0  0  0  0  0  0  0
   -8.2835   -0.3342   22.7719 O   0  0  0  0  0  0  0  0  0  0  0  0
   -7.8920    1.4908   24.2830 C   0  0  0  0  0  0  0  0  0  0  0  0
   -7.4164    2.7933   24.4986 C   0  0  0  0  0  0  0  0  0  0  0  0
   -6.8429    3.4910   23.4236 C   0  0  0  0  0  0  0  0  0  0  0  0
   -6.3379    4.7594   23.5693 O   0  0  0  0  0  0  0  0  0  0  0  0
   -5.8360    5.0143   24.8882 C   0  0  0  0  0  0  0  0  0  0  0  0
   -6.9307    4.8320   25.9401 C   0  0  0  0  0  0  0  0  0  0  0  0
   -8.1480    5.7511   25.7968 C   0  0  0  0  0  0  0  0  0  0  0  0
   -9.1913    5.0494   26.6470 C   0  0  0  0  0  0  0  0  0  0  0  0
   -8.9975    3.5722   26.3255 C   0  0  0  0  0  0  0  0  0  0  0  0
   -7.5301    3.4162   25.8717 C   0  0  0  0  0  0  0  0  0  0  0  0
   -8.2279   -0.6963   21.9094 H   0  0  0  0  0  0  0  0  0  0  0  0
   -5.2140    6.4017   24.9460 C   0  0  0  0  0  0  0  0  0  0  0  0
   -4.5735    6.9233   23.8092 C   0  0  0  0  0  0  0  0  0  0  0  0
   -3.9790    8.1859   23.8440 C   0  0  0  0  0  0  0  0  0  0  0  0
   -4.0175    8.9332   25.0139 C   0  0  0  0  0  0  0  0  0  0  0  0
   -3.4229   10.1599   25.0042 O   0  0  0  0  0  0  0  0  0  0  0  0
   -4.6416    8.4391   26.1538 C   0  0  0  0  0  0  0  0  0  0  0  0
   -5.2368    7.1755   26.1184 C   0  0  0  0  0  0  0  0  0  0  0  0
   -3.0079   10.4732   24.2247 H   0  0  0  0  0  0  0  0  0  0  0  0
   -6.1926    3.7342   20.9984 C   0  0  0  0  0  0  0  0  0  0  0  0
   -6.0811    6.0822   20.8547 C   0  0  0  0  0  0  0  0  0  0  0  0
   -5.5389    4.9184   21.4616 O   0  0  0  0  0  0  0  0  0  0  0  0
 25 26  1  0
 26 24  1  0
 24  1  1  0
  1  2  2  0
  2  3  1  0
  3  4  1  0
  3  5  2  0
  5  6  1  0
  6  7  2  0
  7  8  1  0
  8  9  1  0
  9 16  1  0
 16 17  2  0
 17 18  1  0
 18 19  2  0
 19 20  1  0
 19 21  1  0
 21 22  2  0
  9 10  1  0
 10 11  1  0
 11 12  1  0
 12 13  1  0
 14 13  1  0
  7  1  1  0
 22 16  1  0
 14 10  1  0
 14  6  1  0
  4 15  1  0
 20 23  1  0
M  END
> <minimizedAffinity>
-5.59669

> <CNNscore>
0.5941550136

> <CNNaffinity>
6.7971463203

> <CNN_VS>
4.0385584831

> <CNNaffinity_variance>
0.2589679658

$$$$



 26 29  0  0  0  0  0  0  0  0999 V2000
  -12.5884    8.1279   32.4024 C   0  0  0  0  0  0  0  0  0  0  0  0
  -12.9423    6.8558   32.8733 C   0  0  0  0  0  0  0  0  0  0  0  0
  -14.0833    6.6863   33.6489 C   0  0  0  0  0  0  0  0  0  0  0  0
  -14.3730    5.4270   34.0863 O   0  0  0  0  0  0  0  0  0  0  0  0
  -14.9029    7.7660   33.9612 C   0  0  0  0  0  0  0  0  0  0  0  0
  -14.5824    9.0486   33.4906 C   0  0  0  0  0  0  0  0  0  0  0  0
  -13.4099    9.2198   32.7375 C   0  0  0  0  0  0  0  0  0  0  0  0
  -13.0249   10.4501   32.2651 O   0  0  0  0  0  0  0  0  0  0  0  0
  -13.4579   11.5317   33.1011 C   0  0  0  0  0  0  0  0  0  0  0  0
  -14.9807   11.5481   33.2379 C   0  0  0  0  0  0  0  0  0  0  0  0
  -15.7622   11.7220   31.9316 C   0  0  0  0  0  0  0  0  0  0  0  0
  -17.1539   11.2545   32.3167 C   0  0  0  0  0  0  0  0  0  0  0  0
  -16.9042   10.0299   33.1891 C   0  0  0  0  0  0  0  0  0  0  0  0
  -15.4979   10.2118   33.7995 C   0  0  0  0  0  0  0  0  0  0  0  0
  -13.8083    4.7127   33.8652 H   0  0  0  0  0  0  0  0  0  0  0  0
  -12.9186   12.8490   32.5637 C   0  0  0  0  0  0  0  0  0  0  0  0
  -12.9307   13.9904   33.3833 C   0  0  0  0  0  0  0  0  0  0  0  0
  -12.4588   15.2143   32.9059 C   0  0  0  0  0  0  0  0  0  0  0  0
  -11.9754   15.3067   31.6072 C   0  0  0  0  0  0  0  0  0  0  0  0
  -11.5262   16.5214   31.1814 O   0  0  0  0  0  0  0  0  0  0  0  0
  -11.9554   14.1937   30.7744 C   0  0  0  0  0  0  0  0  0  0  0  0
  -12.4276   12.9689   31.2527 C   0  0  0  0  0  0  0  0  0  0  0  0
  -11.5489   17.2583   31.7597 H   0  0  0  0  0  0  0  0  0  0  0  0
  -11.3532    8.3546   31.5607 C   0  0  0  0  0  0  0  0  0  0  0  0
   -9.5477    9.8456   31.8120 C   0  0  0  0  0  0  0  0  0  0  0  0
  -10.2211    8.7190   32.3543 O   0  0  0  0  0  0  0  0  0  0  0  0
 25 26  1  0
 26 24  1  0
 24  1  1  0
  1  2  2  0
  2  3  1  0
  3  4  1  0
  3  5  2  0
  5  6  1  0
  6  7  2  0
  7  8  1  0
  8  9  1  0
  9 16  1  0
 16 17  2  0
 17 18  1  0
 18 19  2  0
 19 20  1  0
 19 21  1  0
 21 22  2  0
  9 10  1  0
 10 11  1  0
 11 12  1  0
 12 13  1  0
 14 13  1  0
  7  1  1  0
 22 16  1  0
 14 10  1  0
 14  6  1  0
  4 15  1  0
 20 23  1  0
M  END
> <minimizedAffinity>
-3.93477

> <CNNscore>
0.5048092008

> <CNNaffinity>
4.5907325745

> <CNN_VS>
2.3174440861

> <CNNaffinity_variance>
0.0433254950

$$$$



 26 29  0  0  0  0  0  0  0  0999 V2000
   -8.5229    3.1892   25.2294 C   0  0  0  0  0  0  0  0  0  0  0  0
   -9.2721    2.0120   25.0945 C   0  0  0  0  0  0  0  0  0  0  0  0
   -9.3631    1.3747   23.8626 C   0  0  0  0  0  0  0  0  0  0  0  0
  -10.1132    0.2375   23.7893 O   0  0  0  0  0  0  0  0  0  0  0  0
   -8.7048    1.8791   22.7458 C   0  0  0  0  0  0  0  0  0  0  0  0
   -7.9346    3.0471   22.8542 C   0  0  0  0  0  0  0  0  0  0  0  0
   -7.8751    3.7061   24.0926 C   0  0  0  0  0  0  0  0  0  0  0  0
   -7.1589    4.8651   24.2634 O   0  0  0  0  0  0  0  0  0  0  0  0
   -7.0802    5.6560   23.0699 C   0  0  0  0  0  0  0  0  0  0  0  0
   -6.4237    4.8738   21.9317 C   0  0  0  0  0  0  0  0  0  0  0  0
   -4.9880    4.4059   22.1903 C   0  0  0  0  0  0  0  0  0  0  0  0
   -4.7991    3.3286   21.1379 C   0  0  0  0  0  0  0  0  0  0  0  0
   -6.1233    2.5738   21.1397 C   0  0  0  0  0  0  0  0  0  0  0  0
   -7.1889    3.5692   21.6468 C   0  0  0  0  0  0  0  0  0  0  0  0
  -10.5490   -0.0863   24.5530 H   0  0  0  0  0  0  0  0  0  0  0  0
   -6.3526    6.9602   23.3604 C   0  0  0  0  0  0  0  0  0  0  0  0
   -5.9299    7.2426   24.6704 C   0  0  0  0  0  0  0  0  0  0  0  0
   -5.2773    8.4409   24.9648 C   0  0  0  0  0  0  0  0  0  0  0  0
   -5.0460    9.3653   23.9545 C   0  0  0  0  0  0  0  0  0  0  0  0
   -4.4073   10.5230   24.2866 O   0  0  0  0  0  0  0  0  0  0  0  0
   -5.4570    9.1123   22.6507 C   0  0  0  0  0  0  0  0  0  0  0  0
   -6.1098    7.9126   22.3564 C   0  0  0  0  0  0  0  0  0  0  0  0
   -4.1390   10.6728   25.1718 H   0  0  0  0  0  0  0  0  0  0  0  0
   -8.4034    3.9147   26.5504 C   0  0  0  0  0  0  0  0  0  0  0  0
   -8.6169    6.2117   27.0243 C   0  0  0  0  0  0  0  0  0  0  0  0
   -9.2974    5.0273   26.6356 O   0  0  0  0  0  0  0  0  0  0  0  0
 25 26  1  0
 26 24  1  0
 24  1  1  0
  1  2  2  0
  2  3  1  0
  3  4  1  0
  3  5  2  0
  5  6  1  0
  6  7  2  0
  7  8  1  0
  8  9  1  0
  9 16  1  0
 16 17  2  0
 17 18  1  0
 18 19  2  0
 19 20  1  0
 19 21  1  0
 21 22  2  0
  9 10  1  0
 10 11  1  0
 11 12  1  0
 12 13  1  0
 14 13  1  0
  7  1  1  0
 22 16  1  0
 14 10  1  0
 14  6  1  0
  4 15  1  0
 20 23  1  0
M  END
> <minimizedAffinity>
-4.23987

> <CNNscore>
0.4143266678

> <CNNaffinity>
6.5256505013

> <CNN_VS>
2.7037510872

> <CNNaffinity_variance>
0.1551521569

$$$$



 26 29  0  0  0  0  0  0  0  0999 V2000
   -4.4438    5.8148   34.7023 C   0  0  0  0  0  0  0  0  0  0  0  0
   -5.7945    5.5959   34.3973 C   0  0  0  0  0  0  0  0  0  0  0  0
   -6.2116    4.3679   33.8973 C   0  0  0  0  0  0  0  0  0  0  0  0
   -7.5367    4.2156   33.6104 O   0  0  0  0  0  0  0  0  0  0  0  0
   -5.3065    3.3297   33.7033 C   0  0  0  0  0  0  0  0  0  0  0  0
   -3.9506    3.5144   34.0146 C   0  0  0  0  0  0  0  0  0  0  0  0
   -3.5291    4.7680   34.4858 C   0  0  0  0  0  0  0  0  0  0  0  0
   -2.2145    5.0243   34.7881 O   0  0  0  0  0  0  0  0  0  0  0  0
   -1.2979    4.2527   34.0003 C   0  0  0  0  0  0  0  0  0  0  0  0
   -1.5300    2.7538   34.1937 C   0  0  0  0  0  0  0  0  0  0  0  0
   -1.3545    2.2346   35.6244 C   0  0  0  0  0  0  0  0  0  0  0  0
   -2.0660    0.8947   35.5771 C   0  0  0  0  0  0  0  0  0  0  0  0
   -3.3153    1.1686   34.7480 C   0  0  0  0  0  0  0  0  0  0  0  0
   -2.9777    2.3702   33.8394 C   0  0  0  0  0  0  0  0  0  0  0  0
   -8.1307    4.9271   33.7480 H   0  0  0  0  0  0  0  0  0  0  0  0
    0.1323    4.6560   34.3274 C   0  0  0  0  0  0  0  0  0  0  0  0
    0.9206    5.2776   33.3442 C   0  0  0  0  0  0  0  0  0  0  0  0
    2.2413    5.6394   33.6150 C   0  0  0  0  0  0  0  0  0  0  0  0
    2.7835    5.3800   34.8670 C   0  0  0  0  0  0  0  0  0  0  0  0
    4.0775    5.7482   35.0877 O   0  0  0  0  0  0  0  0  0  0  0  0
    2.0265    4.7630   35.8564 C   0  0  0  0  0  0  0  0  0  0  0  0
    0.7045    4.4013   35.5850 C   0  0  0  0  0  0  0  0  0  0  0  0
    4.5693    6.1629   34.4065 H   0  0  0  0  0  0  0  0  0  0  0  0
   -3.9496    7.1373   35.2430 C   0  0  0  0  0  0  0  0  0  0  0  0
   -3.4908    8.4180   37.1654 C   0  0  0  0  0  0  0  0  0  0  0  0
   -3.9660    7.1739   36.6722 O   0  0  0  0  0  0  0  0  0  0  0  0
 25 26  1  0
 26 24  1  0
 24  1  1  0
  1  2  2  0
  2  3  1  0
  3  4  1  0
  3  5  2  0
  5  6  1  0
  6  7  2  0
  7  8  1  0
  8  9  1  0
  9 16  1  0
 16 17  2  0
 17 18  1  0
 18 19  2  0
 19 20  1  0
 19 21  1  0
 21 22  2  0
  9 10  1  0
 10 11  1  0
 11 12  1  0
 12 13  1  0
 14 13  1  0
  7  1  1  0
 22 16  1  0
 14 10  1  0
 14  6  1  0
  4 15  1  0
 20 23  1  0
M  END
> <minimizedAffinity>
-4.64060

> <CNNscore>
0.3567028940

> <CNNaffinity>
4.1596274376

> <CNN_VS>
1.4837511778

> <CNNaffinity_variance>
0.2900939286

$$$$
