


 26 26  0  0  0  0  0  0  0  0999 V2000
   -3.5323   35.6212   98.7941 C   0  0  0  0  0  0  0  0  0  0  0  0
   -2.6822   35.8663   99.9074 C   0  0  0  0  0  0  0  0  0  0  0  0
   -1.2966   35.6955   99.7676 C   0  0  0  0  0  0  0  0  0  0  0  0
   -0.7613   35.2927   98.5425 C   0  0  0  0  0  0  0  0  0  0  0  0
   -1.5568   35.0237   97.4326 C   0  0  0  0  0  0  0  0  0  0  0  0
   -0.8363   34.4780   95.9487 Cl  0  0  0  0  0  0  0  0  0  0  0  0
   -2.9513   35.1865   97.5634 C   0  0  0  0  0  0  0  0  0  0  0  0
   -4.0817   34.7756   96.0639 Br  0  0  0  0  0  0  0  0  0  0  0  0
    0.6720   35.1441   98.4692 N   0  0  0  0  0  0  0  0  0  0  0  0
    1.1917   35.3045   97.3574 O   0  0  0  0  0  0  0  0  0  0  0  0
    1.2584   34.8211   99.5094 O   0  0  0  0  0  0  0  0  0  0  0  0
   -5.0400   35.8394   98.9138 C   0  0  0  0  0  0  0  0  0  0  0  0
   -6.5059   33.8366   98.5147 N   0  0  0  0  0  0  0  0  0  0  0  0
   -5.8072   34.6550   99.5399 C   0  0  0  0  0  0  0  0  0  0  0  0
   -5.8286   33.4953   97.8327 H   0  0  0  0  0  0  0  0  0  0  0  0
   -7.2057   34.4087   98.0420 H   0  0  0  0  0  0  0  0  0  0  0  0
   -6.8073   35.1813  100.5802 C   0  0  0  0  0  0  0  0  0  0  0  0
   -6.5502   35.8282  101.5819 O   0  0  0  0  0  0  0  0  0  0  0  0
   -8.0856   34.8254  100.3149 O   0  0  0  0  0  0  0  0  0  0  0  0
   -8.2835   34.3285   99.5455 H   0  0  0  0  0  0  0  0  0  0  0  0
   -3.1874   36.2753  101.2788 C   0  0  0  0  0  0  0  0  0  0  0  0
   -2.0515   36.3593  102.2969 C   0  0  0  0  0  0  0  0  0  0  0  0
   -2.0201   37.7100  102.9533 C   0  0  0  0  0  0  0  0  0  0  0  0
   -1.8039   37.9545  104.1274 O   0  0  0  0  0  0  0  0  0  0  0  0
   -2.2420   38.7035  102.0718 O   0  0  0  0  0  0  0  0  0  0  0  0
   -2.4072   38.5029  101.1716 H   0  0  0  0  0  0  0  0  0  0  0  0
 14 13  1  0
 14 12  1  0
 12  1  1  0
  1  2  2  0
  2 21  1  0
 21 22  1  0
 22 23  1  0
 23 24  2  0
 23 25  1  0
  2  3  1  0
  3  4  2  0
  4  9  1  0
  9 10  2  0
  9 11  1  0
  4  5  1  0
  5  6  1  0
  5  7  2  0
  7  8  1  0
 14 17  1  0
 17 18  2  0
 17 19  1  0
  7  1  1  0
 13 15  1  0
 13 16  1  0
 25 26  1  0
 19 20  1  0
M  CHG 1   9   1
M  CHG 1  11  -1
M  END
> <minimizedAffinity>
-8.10167

> <CNNscore>
0.3596916795

> <CNNaffinity>
5.3095164299

> <CNN_VS>
1.9097888470

> <CNNaffinity_variance>
0.0031129497

$$$$



 26 26  0  0  0  0  0  0  0  0999 V2000
   -1.7903   35.6740  100.1664 C   0  0  0  0  0  0  0  0  0  0  0  0
   -3.0626   35.4944  100.7757 C   0  0  0  0  0  0  0  0  0  0  0  0
   -4.1676   35.1595   99.9787 C   0  0  0  0  0  0  0  0  0  0  0  0
   -4.0133   35.0004   98.6000 C   0  0  0  0  0  0  0  0  0  0  0  0
   -2.7917   35.1848   97.9593 C   0  0  0  0  0  0  0  0  0  0  0  0
   -2.6727   35.0209   96.2337 Cl  0  0  0  0  0  0  0  0  0  0  0  0
   -1.6754   35.5273   98.7500 C   0  0  0  0  0  0  0  0  0  0  0  0
    0.0154   35.8373   97.8896 Br  0  0  0  0  0  0  0  0  0  0  0  0
   -5.1908   34.6489   97.8438 N   0  0  0  0  0  0  0  0  0  0  0  0
   -5.4553   33.4432   97.7549 O   0  0  0  0  0  0  0  0  0  0  0  0
   -5.8112   35.5740   97.3058 O   0  0  0  0  0  0  0  0  0  0  0  0
   -0.5663   36.0000  101.0213 C   0  0  0  0  0  0  0  0  0  0  0  0
    1.2126   37.7726  101.1336 N   0  0  0  0  0  0  0  0  0  0  0  0
   -0.2497   37.5070  101.1318 C   0  0  0  0  0  0  0  0  0  0  0  0
    1.6292   37.3873  100.2861 H   0  0  0  0  0  0  0  0  0  0  0  0
    1.6369   37.3339  101.9508 H   0  0  0  0  0  0  0  0  0  0  0  0
   -0.9011   38.0786  102.3999 C   0  0  0  0  0  0  0  0  0  0  0  0
   -0.5788   37.8529  103.5547 O   0  0  0  0  0  0  0  0  0  0  0  0
   -1.9581   38.8817  102.1377 O   0  0  0  0  0  0  0  0  0  0  0  0
   -2.2060   39.0553  101.2509 H   0  0  0  0  0  0  0  0  0  0  0  0
   -3.3192   35.6798  102.2600 C   0  0  0  0  0  0  0  0  0  0  0  0
   -2.6588   34.5795  103.0888 C   0  0  0  0  0  0  0  0  0  0  0  0
   -3.5969   34.0693  104.1452 C   0  0  0  0  0  0  0  0  0  0  0  0
   -4.8071   33.9533  104.0632 O   0  0  0  0  0  0  0  0  0  0  0  0
   -2.9432   33.7005  105.2633 O   0  0  0  0  0  0  0  0  0  0  0  0
   -2.0124   33.7945  105.3144 H   0  0  0  0  0  0  0  0  0  0  0  0
 14 13  1  0
 14 12  1  0
 12  1  1  0
  1  2  2  0
  2 21  1  0
 21 22  1  0
 22 23  1  0
 23 24  2  0
 23 25  1  0
  2  3  1  0
  3  4  2  0
  4  9  1  0
  9 10  2  0
  9 11  1  0
  4  5  1  0
  5  6  1  0
  5  7  2  0
  7  8  1  0
 14 17  1  0
 17 18  2  0
 17 19  1  0
  7  1  1  0
 13 15  1  0
 13 16  1  0
 25 26  1  0
 19 20  1  0
M  CHG 1   9   1
M  CHG 1  11  -1
M  END
> <minimizedAffinity>
-7.99778

> <CNNscore>
0.3018348515

> <CNNaffinity>
5.8309516907

> <CNN_VS>
1.7599844933

> <CNNaffinity_variance>
0.1597996354

$$$$



 26 26  0  0  0  0  0  0  0  0999 V2000
   -2.5498   35.1870   98.6807 C   0  0  0  0  0  0  0  0  0  0  0  0
   -3.6686   35.3366   99.5456 C   0  0  0  0  0  0  0  0  0  0  0  0
   -3.5127   36.0157  100.7633 C   0  0  0  0  0  0  0  0  0  0  0  0
   -2.2687   36.5427  101.1164 C   0  0  0  0  0  0  0  0  0  0  0  0
   -1.1430   36.4036  100.3099 C   0  0  0  0  0  0  0  0  0  0  0  0
    0.3897   37.0384  100.8262 Cl  0  0  0  0  0  0  0  0  0  0  0  0
   -1.2869   35.7177   99.0863 C   0  0  0  0  0  0  0  0  0  0  0  0
    0.2595   35.4656   97.9725 Br  0  0  0  0  0  0  0  0  0  0  0  0
   -2.1832   37.2346  102.3796 N   0  0  0  0  0  0  0  0  0  0  0  0
   -2.3517   38.4605  102.3548 O   0  0  0  0  0  0  0  0  0  0  0  0
   -1.9005   36.5566  103.3749 O   0  0  0  0  0  0  0  0  0  0  0  0
   -2.7073   34.4854   97.3323 C   0  0  0  0  0  0  0  0  0  0  0  0
   -4.1985   35.9736   95.9609 N   0  0  0  0  0  0  0  0  0  0  0  0
   -2.8204   35.4422   96.1259 C   0  0  0  0  0  0  0  0  0  0  0  0
   -4.4835   36.4511   96.8160 H   0  0  0  0  0  0  0  0  0  0  0  0
   -4.8397   35.2032   95.7719 H   0  0  0  0  0  0  0  0  0  0  0  0
   -2.3676   34.7176   94.8495 C   0  0  0  0  0  0  0  0  0  0  0  0
   -1.9976   33.5588   94.7570 O   0  0  0  0  0  0  0  0  0  0  0  0
   -2.3711   35.5155   93.7567 O   0  0  0  0  0  0  0  0  0  0  0  0
   -2.6552   36.4056   93.8274 H   0  0  0  0  0  0  0  0  0  0  0  0
   -5.0438   34.7668   99.2498 C   0  0  0  0  0  0  0  0  0  0  0  0
   -6.1373   35.8221   99.4049 C   0  0  0  0  0  0  0  0  0  0  0  0
   -7.0254   35.5047  100.5741 C   0  0  0  0  0  0  0  0  0  0  0  0
   -7.0314   36.0484  101.6646 O   0  0  0  0  0  0  0  0  0  0  0  0
   -7.8944   34.5154  100.2922 O   0  0  0  0  0  0  0  0  0  0  0  0
   -7.8800   34.1049   99.4500 H   0  0  0  0  0  0  0  0  0  0  0  0
 14 13  1  0
 14 12  1  0
 12  1  1  0
  1  2  2  0
  2 21  1  0
 21 22  1  0
 22 23  1  0
 23 24  2  0
 23 25  1  0
  2  3  1  0
  3  4  2  0
  4  9  1  0
  9 10  2  0
  9 11  1  0
  4  5  1  0
  5  6  1  0
  5  7  2  0
  7  8  1  0
 14 17  1  0
 17 18  2  0
 17 19  1  0
  7  1  1  0
 13 15  1  0
 13 16  1  0
 25 26  1  0
 19 20  1  0
M  CHG 1   9   1
M  CHG 1  11  -1
M  END
> <minimizedAffinity>
-7.40192

> <CNNscore>
0.1858418286

> <CNNaffinity>
4.8885684013

> <CNN_VS>
0.9085004926

> <CNNaffinity_variance>
0.1980351657

$$$$



 26 26  0  0  0  0  0  0  0  0999 V2000
   -2.7683   35.4375   98.6549 C   0  0  0  0  0  0  0  0  0  0  0  0
   -2.8557   35.8330  100.0180 C   0  0  0  0  0  0  0  0  0  0  0  0
   -4.0885   35.7491  100.6825 C   0  0  0  0  0  0  0  0  0  0  0  0
   -5.2161   35.2761  100.0082 C   0  0  0  0  0  0  0  0  0  0  0  0
   -5.1807   34.8962   98.6698 C   0  0  0  0  0  0  0  0  0  0  0  0
   -6.6284   34.3621   97.8712 Cl  0  0  0  0  0  0  0  0  0  0  0  0
   -3.9480   34.9819   97.9904 C   0  0  0  0  0  0  0  0  0  0  0  0
   -3.8765   34.5116   96.1279 Br  0  0  0  0  0  0  0  0  0  0  0  0
   -6.4485   35.2101  100.7556 N   0  0  0  0  0  0  0  0  0  0  0  0
   -6.5496   35.9670  101.7296 O   0  0  0  0  0  0  0  0  0  0  0  0
   -7.2820   34.3706  100.3938 O   0  0  0  0  0  0  0  0  0  0  0  0
   -1.4269   35.4836   97.9243 C   0  0  0  0  0  0  0  0  0  0  0  0
    0.8646   34.7633   98.6655 N   0  0  0  0  0  0  0  0  0  0  0  0
   -0.4851   34.3035   98.2466 C   0  0  0  0  0  0  0  0  0  0  0  0
    0.7786   35.3759   99.4765 H   0  0  0  0  0  0  0  0  0  0  0  0
    1.3030   35.2737   97.8989 H   0  0  0  0  0  0  0  0  0  0  0  0
   -0.3823   33.3780   97.0250 C   0  0  0  0  0  0  0  0  0  0  0  0
   -0.2512   32.1652   97.0335 O   0  0  0  0  0  0  0  0  0  0  0  0
   -0.4130   34.0464   95.8488 O   0  0  0  0  0  0  0  0  0  0  0  0
   -0.5137   34.9780   95.8418 H   0  0  0  0  0  0  0  0  0  0  0  0
   -1.6860   36.3865  100.8110 C   0  0  0  0  0  0  0  0  0  0  0  0
   -2.1154   37.5332  101.7243 C   0  0  0  0  0  0  0  0  0  0  0  0
   -1.7638   37.2385  103.1546 C   0  0  0  0  0  0  0  0  0  0  0  0
   -1.8696   37.9881  104.1096 O   0  0  0  0  0  0  0  0  0  0  0  0
   -1.3123   35.9797  103.3131 O   0  0  0  0  0  0  0  0  0  0  0  0
   -1.2354   35.4128  102.5711 H   0  0  0  0  0  0  0  0  0  0  0  0
 14 13  1  0
 14 12  1  0
 12  1  1  0
  1  2  2  0
  2 21  1  0
 21 22  1  0
 22 23  1  0
 23 24  2  0
 23 25  1  0
  2  3  1  0
  3  4  2  0
  4  9  1  0
  9 10  2  0
  9 11  1  0
  4  5  1  0
  5  6  1  0
  5  7  2  0
  7  8  1  0
 14 17  1  0
 17 18  2  0
 17 19  1  0
  7  1  1  0
 13 15  1  0
 13 16  1  0
 25 26  1  0
 19 20  1  0
M  CHG 1   9   1
M  CHG 1  11  -1
M  END
> <minimizedAffinity>
-7.65829

> <CNNscore>
0.1858253181

> <CNNaffinity>
5.0538010597

> <CNN_VS>
0.9391241670

> <CNNaffinity_variance>
0.0648983121

$$$$



 26 26  0  0  0  0  0  0  0  0999 V2000
   -2.2468   35.6529  100.4156 C   0  0  0  0  0  0  0  0  0  0  0  0
   -0.8864   35.4277  100.7632 C   0  0  0  0  0  0  0  0  0  0  0  0
    0.0184   35.0136   99.7741 C   0  0  0  0  0  0  0  0  0  0  0  0
   -0.4169   34.8302   98.4601 C   0  0  0  0  0  0  0  0  0  0  0  0
   -1.7419   35.0206   98.0792 C   0  0  0  0  0  0  0  0  0  0  0  0
   -2.2335   34.7286   96.4385 Cl  0  0  0  0  0  0  0  0  0  0  0  0
   -2.6612   35.4313   99.0665 C   0  0  0  0  0  0  0  0  0  0  0  0
   -4.5083   35.6552   98.5835 Br  0  0  0  0  0  0  0  0  0  0  0  0
    0.5693   34.4104   97.4942 N   0  0  0  0  0  0  0  0  0  0  0  0
    0.5001   33.2386   97.1020 O   0  0  0  0  0  0  0  0  0  0  0  0
    1.4315   35.2376   97.1740 O   0  0  0  0  0  0  0  0  0  0  0  0
   -3.2398   36.1423  101.4690 C   0  0  0  0  0  0  0  0  0  0  0  0
   -5.5853   35.4000  101.9857 N   0  0  0  0  0  0  0  0  0  0  0  0
   -4.1457   35.0367  102.0526 C   0  0  0  0  0  0  0  0  0  0  0  0
   -5.8432   35.5908  101.0175 H   0  0  0  0  0  0  0  0  0  0  0  0
   -5.7529   36.2313  102.5525 H   0  0  0  0  0  0  0  0  0  0  0  0
   -3.7322   34.7441  103.5027 C   0  0  0  0  0  0  0  0  0  0  0  0
   -2.7575   35.1842  104.0896 O   0  0  0  0  0  0  0  0  0  0  0  0
   -4.5601   33.8734  104.1252 O   0  0  0  0  0  0  0  0  0  0  0  0
   -5.3088   33.5351  103.6747 H   0  0  0  0  0  0  0  0  0  0  0  0
   -0.3420   35.5739  102.1723 C   0  0  0  0  0  0  0  0  0  0  0  0
    0.5494   36.8071  102.3078 C   0  0  0  0  0  0  0  0  0  0  0  0
   -0.2590   38.0115  102.6980 C   0  0  0  0  0  0  0  0  0  0  0  0
   -0.1881   39.1322  102.2248 O   0  0  0  0  0  0  0  0  0  0  0  0
   -1.1506   37.7273  103.6663 O   0  0  0  0  0  0  0  0  0  0  0  0
   -1.1956   36.8617  104.0223 H   0  0  0  0  0  0  0  0  0  0  0  0
 14 13  1  0
 14 12  1  0
 12  1  1  0
  1  2  2  0
  2 21  1  0
 21 22  1  0
 22 23  1  0
 23 24  2  0
 23 25  1  0
  2  3  1  0
  3  4  2  0
  4  9  1  0
  9 10  2  0
  9 11  1  0
  4  5  1  0
  5  6  1  0
  5  7  2  0
  7  8  1  0
 14 17  1  0
 17 18  2  0
 17 19  1  0
  7  1  1  0
 13 15  1  0
 13 16  1  0
 25 26  1  0
 19 20  1  0
M  CHG 1   9   1
M  CHG 1  11  -1
M  END
> <minimizedAffinity>
-7.33079

> <CNNscore>
0.1764023602

> <CNNaffinity>
5.6185588837

> <CNN_VS>
0.9911270738

> <CNNaffinity_variance>
0.5357518792

$$$$



 26 26  0  0  0  0  0  0  0  0999 V2000
   -2.1777   35.5397  101.0064 C   0  0  0  0  0  0  0  0  0  0  0  0
   -1.7579   35.7597   99.6657 C   0  0  0  0  0  0  0  0  0  0  0  0
   -2.7165   35.8097   98.6425 C   0  0  0  0  0  0  0  0  0  0  0  0
   -4.0705   35.6491   98.9438 C   0  0  0  0  0  0  0  0  0  0  0  0
   -4.5244   35.4132  100.2381 C   0  0  0  0  0  0  0  0  0  0  0  0
   -6.2178   35.1722  100.5435 Cl  0  0  0  0  0  0  0  0  0  0  0  0
   -3.5690   35.3551  101.2736 C   0  0  0  0  0  0  0  0  0  0  0  0
   -4.1584   34.9818  103.0648 Br  0  0  0  0  0  0  0  0  0  0  0  0
   -5.0009   35.7193   97.8432 N   0  0  0  0  0  0  0  0  0  0  0  0
   -5.2540   34.6573   97.2603 O   0  0  0  0  0  0  0  0  0  0  0  0
   -5.4313   36.8388   97.5404 O   0  0  0  0  0  0  0  0  0  0  0  0
   -1.1538   35.5212  102.1407 C   0  0  0  0  0  0  0  0  0  0  0  0
    0.6767   36.7799  103.3171 N   0  0  0  0  0  0  0  0  0  0  0  0
   -0.5312   36.8975  102.4592 C   0  0  0  0  0  0  0  0  0  0  0  0
    1.3632   36.1816  102.8576 H   0  0  0  0  0  0  0  0  0  0  0  0
    0.4174   36.3722  104.2154 H   0  0  0  0  0  0  0  0  0  0  0  0
   -1.5815   37.7951  103.1304 C   0  0  0  0  0  0  0  0  0  0  0  0
   -1.9498   37.7491  104.2925 O   0  0  0  0  0  0  0  0  0  0  0  0
   -2.1414   38.6851  102.2786 O   0  0  0  0  0  0  0  0  0  0  0  0
   -1.8588   38.7208  101.3859 H   0  0  0  0  0  0  0  0  0  0  0  0
   -0.3056   35.9119   99.2523 C   0  0  0  0  0  0  0  0  0  0  0  0
   -0.1264   35.7365   97.7454 C   0  0  0  0  0  0  0  0  0  0  0  0
    0.6236   34.4716   97.4393 C   0  0  0  0  0  0  0  0  0  0  0  0
    0.1512   33.3807   97.1712 O   0  0  0  0  0  0  0  0  0  0  0  0
    1.9569   34.6586   97.4624 O   0  0  0  0  0  0  0  0  0  0  0  0
    2.3082   35.5021   97.6699 H   0  0  0  0  0  0  0  0  0  0  0  0
 14 13  1  0
 14 12  1  0
 12  1  1  0
  1  2  2  0
  2 21  1  0
 21 22  1  0
 22 23  1  0
 23 24  2  0
 23 25  1  0
  2  3  1  0
  3  4  2  0
  4  9  1  0
  9 10  2  0
  9 11  1  0
  4  5  1  0
  5  6  1  0
  5  7  2  0
  7  8  1  0
 14 17  1  0
 17 18  2  0
 17 19  1  0
  7  1  1  0
 13 15  1  0
 13 16  1  0
 25 26  1  0
 19 20  1  0
M  CHG 1   9   1
M  CHG 1  11  -1
M  END
> <minimizedAffinity>
-7.56499

> <CNNscore>
0.1724068671

> <CNNaffinity>
5.2936668396

> <CNN_VS>
0.9126645327

> <CNNaffinity_variance>
0.0292350184

$$$$



 26 26  0  0  0  0  0  0  0  0999 V2000
   -4.3956   35.1439   97.9345 C   0  0  0  0  0  0  0  0  0  0  0  0
   -3.0043   35.3596   98.1338 C   0  0  0  0  0  0  0  0  0  0  0  0
   -2.5194   35.5768   99.4324 C   0  0  0  0  0  0  0  0  0  0  0  0
   -3.3988   35.5754  100.5170 C   0  0  0  0  0  0  0  0  0  0  0  0
   -4.7695   35.3873  100.3664 C   0  0  0  0  0  0  0  0  0  0  0  0
   -5.8199   35.4454  101.7492 Cl  0  0  0  0  0  0  0  0  0  0  0  0
   -5.2686   35.1739   99.0650 C   0  0  0  0  0  0  0  0  0  0  0  0
   -7.1629   34.9600   98.8174 Br  0  0  0  0  0  0  0  0  0  0  0  0
   -2.8297   35.7981  101.8240 N   0  0  0  0  0  0  0  0  0  0  0  0
   -2.5086   34.7923  102.4697 O   0  0  0  0  0  0  0  0  0  0  0  0
   -2.7544   36.9700  102.2130 O   0  0  0  0  0  0  0  0  0  0  0  0
   -4.9388   34.8662   96.5334 C   0  0  0  0  0  0  0  0  0  0  0  0
   -6.3719   36.8548   95.9758 N   0  0  0  0  0  0  0  0  0  0  0  0
   -5.1165   36.1254   95.6581 C   0  0  0  0  0  0  0  0  0  0  0  0
   -6.3763   37.1099   96.9633 H   0  0  0  0  0  0  0  0  0  0  0  0
   -7.1730   36.2559   95.7757 H   0  0  0  0  0  0  0  0  0  0  0  0
   -5.0859   35.7297   94.1742 C   0  0  0  0  0  0  0  0  0  0  0  0
   -4.2241   35.0787   93.6072 O   0  0  0  0  0  0  0  0  0  0  0  0
   -6.1369   36.2153   93.4737 O   0  0  0  0  0  0  0  0  0  0  0  0
   -6.7991   36.7154   93.9089 H   0  0  0  0  0  0  0  0  0  0  0  0
   -1.9895   35.4075   97.0064 C   0  0  0  0  0  0  0  0  0  0  0  0
   -0.9201   34.3279   97.1632 C   0  0  0  0  0  0  0  0  0  0  0  0
    0.4272   34.9420   97.4159 C   0  0  0  0  0  0  0  0  0  0  0  0
    0.6670   36.1016   97.7037 O   0  0  0  0  0  0  0  0  0  0  0  0
    1.4196   34.0373   97.3156 O   0  0  0  0  0  0  0  0  0  0  0  0
    1.2227   33.1485   97.0936 H   0  0  0  0  0  0  0  0  0  0  0  0
 14 13  1  0
 14 12  1  0
 12  1  1  0
  1  2  2  0
  2 21  1  0
 21 22  1  0
 22 23  1  0
 23 24  2  0
 23 25  1  0
  2  3  1  0
  3  4  2  0
  4  9  1  0
  9 10  2  0
  9 11  1  0
  4  5  1  0
  5  6  1  0
  5  7  2  0
  7  8  1  0
 14 17  1  0
 17 18  2  0
 17 19  1  0
  7  1  1  0
 13 15  1  0
 13 16  1  0
 25 26  1  0
 19 20  1  0
M  CHG 1   9   1
M  CHG 1  11  -1
M  END
> <minimizedAffinity>
-6.87595

> <CNNscore>
0.1568764299

> <CNNaffinity>
4.4003996849

> <CNN_VS>
0.6903190017

> <CNNaffinity_variance>
0.5673484802

$$$$



 26 26  0  0  0  0  0  0  0  0999 V2000
   -2.3186   35.2750   98.5852 C   0  0  0  0  0  0  0  0  0  0  0  0
   -3.6845   35.5055   98.2637 C   0  0  0  0  0  0  0  0  0  0  0  0
   -4.1327   35.2759   96.9541 C   0  0  0  0  0  0  0  0  0  0  0  0
   -3.2424   34.8205   95.9796 C   0  0  0  0  0  0  0  0  0  0  0  0
   -1.8941   34.5997   96.2449 C   0  0  0  0  0  0  0  0  0  0  0  0
   -0.8247   34.0798   94.9781 Cl  0  0  0  0  0  0  0  0  0  0  0  0
   -1.4315   34.8327   97.5564 C   0  0  0  0  0  0  0  0  0  0  0  0
    0.4350   34.5846   97.9433 Br  0  0  0  0  0  0  0  0  0  0  0  0
   -3.7740   34.5992   94.6566 N   0  0  0  0  0  0  0  0  0  0  0  0
   -3.8432   35.5860   93.9128 O   0  0  0  0  0  0  0  0  0  0  0  0
   -4.1621   33.4553   94.3899 O   0  0  0  0  0  0  0  0  0  0  0  0
   -1.8186   35.4808  100.0145 C   0  0  0  0  0  0  0  0  0  0  0  0
   -0.0532   37.1829  100.5671 N   0  0  0  0  0  0  0  0  0  0  0  0
   -1.5084   36.9495  100.3754 C   0  0  0  0  0  0  0  0  0  0  0  0
    0.4485   36.9157   99.7202 H   0  0  0  0  0  0  0  0  0  0  0  0
    0.2806   36.6224  101.3512 H   0  0  0  0  0  0  0  0  0  0  0  0
   -2.2870   37.3448  101.6390 C   0  0  0  0  0  0  0  0  0  0  0  0
   -2.9324   36.6052  102.3634 O   0  0  0  0  0  0  0  0  0  0  0  0
   -2.2380   38.6718  101.8991 O   0  0  0  0  0  0  0  0  0  0  0  0
   -1.7424   39.2402  101.3430 H   0  0  0  0  0  0  0  0  0  0  0  0
   -4.7063   36.0295   99.2559 C   0  0  0  0  0  0  0  0  0  0  0  0
   -5.6778   34.9359   99.6962 C   0  0  0  0  0  0  0  0  0  0  0  0
   -6.4232   35.3486  100.9333 C   0  0  0  0  0  0  0  0  0  0  0  0
   -7.6185   35.5614  101.0376 O   0  0  0  0  0  0  0  0  0  0  0  0
   -5.6095   35.4483  102.0016 O   0  0  0  0  0  0  0  0  0  0  0  0
   -4.6920   35.2823  101.9089 H   0  0  0  0  0  0  0  0  0  0  0  0
 14 13  1  0
 14 12  1  0
 12  1  1  0
  1  2  2  0
  2 21  1  0
 21 22  1  0
 22 23  1  0
 23 24  2  0
 23 25  1  0
  2  3  1  0
  3  4  2  0
  4  9  1  0
  9 10  2  0
  9 11  1  0
  4  5  1  0
  5  6  1  0
  5  7  2  0
  7  8  1  0
 14 17  1  0
 17 18  2  0
 17 19  1  0
  7  1  1  0
 13 15  1  0
 13 16  1  0
 25 26  1  0
 19 20  1  0
M  CHG 1   9   1
M  CHG 1  11  -1
M  END
> <minimizedAffinity>
-6.51562

> <CNNscore>
0.1409421414

> <CNNaffinity>
5.0012578964

> <CNN_VS>
0.7048879862

> <CNNaffinity_variance>
0.1413946301

$$$$



 26 26  0  0  0  0  0  0  0  0999 V2000
   -3.8602   34.8668   99.2680 C   0  0  0  0  0  0  0  0  0  0  0  0
   -3.0028   35.2824  100.3236 C   0  0  0  0  0  0  0  0  0  0  0  0
   -1.6405   35.4938  100.0626 C   0  0  0  0  0  0  0  0  0  0  0  0
   -1.1367   35.3010   98.7747 C   0  0  0  0  0  0  0  0  0  0  0  0
   -1.9350   34.8768   97.7165 C   0  0  0  0  0  0  0  0  0  0  0  0
   -1.2403   34.6068   96.1471 Cl  0  0  0  0  0  0  0  0  0  0  0  0
   -3.3047   34.6557   97.9689 C   0  0  0  0  0  0  0  0  0  0  0  0
   -4.4243   34.0220   96.5406 Br  0  0  0  0  0  0  0  0  0  0  0  0
    0.2718   35.5437   98.5775 N   0  0  0  0  0  0  0  0  0  0  0  0
    1.0529   34.8837   99.2746 O   0  0  0  0  0  0  0  0  0  0  0  0
    0.5832   36.4238   97.7659 O   0  0  0  0  0  0  0  0  0  0  0  0
   -5.3541   34.6692   99.5219 C   0  0  0  0  0  0  0  0  0  0  0  0
   -7.0582   36.2412  100.4936 N   0  0  0  0  0  0  0  0  0  0  0  0
   -6.2089   35.9377   99.3123 C   0  0  0  0  0  0  0  0  0  0  0  0
   -6.4678   36.3477  101.3185 H   0  0  0  0  0  0  0  0  0  0  0  0
   -7.7175   35.4775  100.6436 H   0  0  0  0  0  0  0  0  0  0  0  0
   -7.0760   35.7725   98.0553 C   0  0  0  0  0  0  0  0  0  0  0  0
   -7.8855   34.8868   97.8348 O   0  0  0  0  0  0  0  0  0  0  0  0
   -6.8430   36.7233   97.1212 O   0  0  0  0  0  0  0  0  0  0  0  0
   -6.2214   37.4038   97.2902 H   0  0  0  0  0  0  0  0  0  0  0  0
   -3.4656   35.4830  101.7550 C   0  0  0  0  0  0  0  0  0  0  0  0
   -2.6820   34.6058  102.7297 C   0  0  0  0  0  0  0  0  0  0  0  0
   -3.3322   34.5977  104.0838 C   0  0  0  0  0  0  0  0  0  0  0  0
   -2.8954   35.0790  105.1146 O   0  0  0  0  0  0  0  0  0  0  0  0
   -4.5354   33.9933  104.0610 O   0  0  0  0  0  0  0  0  0  0  0  0
   -4.8606   33.6270  103.2622 H   0  0  0  0  0  0  0  0  0  0  0  0
 14 13  1  0
 14 12  1  0
 12  1  1  0
  1  2  2  0
  2 21  1  0
 21 22  1  0
 22 23  1  0
 23 24  2  0
 23 25  1  0
  2  3  1  0
  3  4  2  0
  4  9  1  0
  9 10  2  0
  9 11  1  0
  4  5  1  0
  5  6  1  0
  5  7  2  0
  7  8  1  0
 14 17  1  0
 17 18  2  0
 17 19  1  0
  7  1  1  0
 13 15  1  0
 13 16  1  0
 25 26  1  0
 19 20  1  0
M  CHG 1   9   1
M  CHG 1  11  -1
M  END
> <minimizedAffinity>
-7.28246

> <CNNscore>
0.1268854290

> <CNNaffinity>
4.6606612206

> <CNN_VS>
0.5913699865

> <CNNaffinity_variance>
0.0709141791

$$$$
