


 44 45  0  0  0  0  0  0  0  0999 V2000
   29.0138  -24.0260   -3.9635 C   0  0  0  0  0  0  0  0  0  0  0  0
   29.0613  -24.6598   -5.1493 C   0  0  0  0  0  0  0  0  0  0  0  0
   30.1827  -24.4821   -6.1516 C   0  0  0  0  0  0  0  0  0  0  0  0
   31.3137  -25.5383   -6.0369 C   0  0  0  0  0  0  0  0  0  0  0  0
   32.5597  -25.0016   -6.7510 C   0  0  0  0  0  0  0  0  0  0  0  0
   30.8613  -26.9155   -6.5941 C   0  0  0  0  0  0  0  0  0  0  0  0
   31.8404  -28.0801   -6.3350 C   0  0  0  0  0  0  0  0  0  0  0  0
   31.1356  -29.4713   -6.5055 C   0  0  0  0  0  0  0  0  0  0  0  0
   30.6497  -29.8331   -7.9456 C   0  0  0  0  0  0  0  0  0  0  0  0
   31.7687  -29.9797   -8.9802 C   0  0  0  0  0  0  0  0  0  0  0  0
   29.8906  -31.1588   -7.9180 C   0  0  0  0  0  0  0  0  0  0  0  0
   28.6755  -31.4586   -8.4296 C   0  0  0  0  0  0  0  0  0  0  0  0
   27.8310  -30.4566   -9.1684 C   0  0  0  0  0  0  0  0  0  0  0  0
   28.1455  -32.8965   -8.3367 C   0  0  0  0  0  0  0  0  0  0  0  0
   27.2155  -33.2206   -7.1107 C   0  0  0  0  0  0  0  0  0  0  0  0
   25.8050  -32.6627   -7.1772 C   0  0  0  0  0  0  0  0  0  0  0  0
   25.2890  -31.4961   -6.7527 C   0  0  0  0  0  0  0  0  0  0  0  0
   26.0409  -30.3932   -6.1995 C   0  0  0  0  0  0  0  0  0  0  0  0
   25.5776  -29.1655   -5.8925 C   0  0  0  0  0  0  0  0  0  0  0  0
   24.1697  -28.6734   -6.0303 C   0  0  0  0  0  0  0  0  0  0  0  0
   26.6397  -28.1738   -5.5192 C   0  0  0  0  0  0  0  0  0  0  0  0
   27.8150  -28.3412   -5.8301 O   0  0  0  0  0  0  0  0  0  0  0  0
   26.2034  -27.1124   -4.7498 N   0  0  0  0  0  0  0  0  0  0  0  0
   26.9978  -26.0094   -4.5020 C   0  0  0  0  0  0  0  0  0  0  0  0
   26.9208  -25.3403   -3.3503 C   0  0  0  0  0  0  0  0  0  0  0  0
   27.8414  -24.2285   -3.0475 C   0  0  0  0  0  0  0  0  0  0  0  0
   27.6425  -23.5563   -2.0419 O   0  0  0  0  0  0  0  0  0  0  0  0
   27.9027  -25.4841   -5.5775 C   0  0  0  0  0  0  0  0  0  0  0  0
   27.6568  -25.6604   -6.7671 O   0  0  0  0  0  0  0  0  0  0  0  0
   25.2974  -27.1429   -4.3658 H   0  0  0  0  0  0  0  0  0  0  0  0
   29.9080  -21.8334   -3.8231 C   0  0  0  0  0  0  0  0  0  0  0  0
   30.0845  -23.2270   -3.5809 O   0  0  0  0  0  0  0  0  0  0  0  0
   32.9730  -27.8946   -7.1937 O   0  0  0  0  0  0  0  0  0  0  0  0
   34.2282  -27.9896   -6.5342 C   0  0  0  0  0  0  0  0  0  0  0  0
   32.0124  -30.5206   -6.0259 O   0  0  0  0  0  0  0  0  0  0  0  0
   32.2653  -30.4297   -4.6298 C   0  0  0  0  0  0  0  0  0  0  0  0
   27.8082  -32.8762   -5.8481 O   0  0  0  0  0  0  0  0  0  0  0  0
   28.8143  -33.7899   -5.4331 C   0  0  0  0  0  0  0  0  0  0  0  0
   27.5114  -33.2227   -9.5950 O   0  0  0  0  0  0  0  0  0  0  0  0
   27.7893  -34.4434  -10.0919 C   0  0  0  0  0  0  0  0  0  0  0  0
   29.0449  -34.4604  -10.5894 N   0  0  0  0  0  0  0  0  0  0  0  0
   27.0446  -35.4091  -10.1088 O   0  0  0  0  0  0  0  0  0  0  0  0
   29.6017  -33.6494  -10.5482 H   0  0  0  0  0  0  0  0  0  0  0  0
   29.4034  -35.2836  -10.9931 H   0  0  0  0  0  0  0  0  0  0  0  0
 31 32  1  0
 32  1  1  0
  1  2  2  0
  2  3  1  0
  3  4  1  0
  4  5  1  0
  4  6  1  0
  6  7  1  0
  7 33  1  0
 33 34  1  0
  7  8  1  0
  8 35  1  0
 35 36  1  0
  8  9  1  0
  9 10  1  0
  9 11  1  0
 11 12  2  0
 12 13  1  0
 12 14  1  0
 14 39  1  0
 39 40  1  0
 40 41  1  0
 40 42  2  0
 14 15  1  0
 15 37  1  0
 37 38  1  0
 15 16  1  0
 16 17  2  0
 17 18  1  0
 18 19  2  0
 19 20  1  0
 19 21  1  0
 21 22  2  0
 21 23  1  0
 23 24  1  0
 24 25  2  0
 25 26  1  0
 26 27  2  0
 24 28  1  0
 28 29  2  0
 26  1  1  0
 28  2  1  0
 41 43  1  0
 41 44  1  0
 23 30  1  0
M  END
> <minimizedAffinity>
-4.91696

> <CNNscore>
0.5986153483

> <CNNaffinity>
6.4609522820

> <CNN_VS>
3.8676252365

> <CNNaffinity_variance>
0.1799650192

$$$$



 44 45  0  0  0  0  0  0  0  0999 V2000
   29.2354  -34.7820   -6.6328 C   0  0  0  0  0  0  0  0  0  0  0  0
   28.0777  -34.1527   -6.9043 C   0  0  0  0  0  0  0  0  0  0  0  0
   27.5353  -33.9606   -8.3053 C   0  0  0  0  0  0  0  0  0  0  0  0
   26.5374  -35.0590   -8.7588 C   0  0  0  0  0  0  0  0  0  0  0  0
   26.4281  -35.0207  -10.2876 C   0  0  0  0  0  0  0  0  0  0  0  0
   25.1584  -34.8933   -8.0641 C   0  0  0  0  0  0  0  0  0  0  0  0
   24.1676  -36.0549   -8.2905 C   0  0  0  0  0  0  0  0  0  0  0  0
   23.0166  -36.0434   -7.2246 C   0  0  0  0  0  0  0  0  0  0  0  0
   22.0351  -34.8288   -7.2736 C   0  0  0  0  0  0  0  0  0  0  0  0
   21.2039  -34.7294   -8.5555 C   0  0  0  0  0  0  0  0  0  0  0  0
   21.0505  -34.9115   -6.1082 C   0  0  0  0  0  0  0  0  0  0  0  0
   20.7152  -33.9640   -5.2038 C   0  0  0  0  0  0  0  0  0  0  0  0
   21.2990  -32.5776   -5.2194 C   0  0  0  0  0  0  0  0  0  0  0  0
   19.6358  -34.2635   -4.1540 C   0  0  0  0  0  0  0  0  0  0  0  0
   20.1429  -34.7825   -2.7588 C   0  0  0  0  0  0  0  0  0  0  0  0
   20.7895  -33.7467   -1.8564 C   0  0  0  0  0  0  0  0  0  0  0  0
   22.0685  -33.3526   -1.7287 C   0  0  0  0  0  0  0  0  0  0  0  0
   23.1699  -33.7814   -2.5599 C   0  0  0  0  0  0  0  0  0  0  0  0
   24.4310  -33.3063   -2.5482 C   0  0  0  0  0  0  0  0  0  0  0  0
   24.9848  -32.2428   -1.6508 C   0  0  0  0  0  0  0  0  0  0  0  0
   25.2984  -33.8134   -3.6624 C   0  0  0  0  0  0  0  0  0  0  0  0
   24.8185  -34.2940   -4.6845 O   0  0  0  0  0  0  0  0  0  0  0  0
   26.6569  -33.7598   -3.4159 N   0  0  0  0  0  0  0  0  0  0  0  0
   27.5927  -33.9838   -4.4074 C   0  0  0  0  0  0  0  0  0  0  0  0
   28.7666  -34.5584   -4.1399 C   0  0  0  0  0  0  0  0  0  0  0  0
   29.7196  -34.8904   -5.2156 C   0  0  0  0  0  0  0  0  0  0  0  0
   30.8384  -35.2870   -4.9097 O   0  0  0  0  0  0  0  0  0  0  0  0
   27.3368  -33.4901   -5.8010 C   0  0  0  0  0  0  0  0  0  0  0  0
   26.6056  -32.5284   -6.0180 O   0  0  0  0  0  0  0  0  0  0  0  0
   26.9680  -33.5554   -2.5045 H   0  0  0  0  0  0  0  0  0  0  0  0
   29.7687  -36.7803   -7.7943 C   0  0  0  0  0  0  0  0  0  0  0  0
   29.9445  -35.3710   -7.6727 O   0  0  0  0  0  0  0  0  0  0  0  0
   23.7050  -35.9736   -9.6447 O   0  0  0  0  0  0  0  0  0  0  0  0
   23.6064  -37.2281  -10.3048 C   0  0  0  0  0  0  0  0  0  0  0  0
   22.2529  -37.2711   -7.3229 O   0  0  0  0  0  0  0  0  0  0  0  0
   22.8300  -38.3377   -6.5809 C   0  0  0  0  0  0  0  0  0  0  0  0
   21.0010  -35.9300   -2.8632 O   0  0  0  0  0  0  0  0  0  0  0  0
   21.9084  -35.8543   -3.9540 C   0  0  0  0  0  0  0  0  0  0  0  0
   18.8015  -33.0895   -4.0213 O   0  0  0  0  0  0  0  0  0  0  0  0
   17.6177  -33.1368   -4.6623 C   0  0  0  0  0  0  0  0  0  0  0  0
   17.1517  -31.8840   -4.8564 N   0  0  0  0  0  0  0  0  0  0  0  0
   17.0263  -34.1397   -5.0254 O   0  0  0  0  0  0  0  0  0  0  0  0
   17.6730  -31.1106   -4.5413 H   0  0  0  0  0  0  0  0  0  0  0  0
   16.2907  -31.7443   -5.3130 H   0  0  0  0  0  0  0  0  0  0  0  0
 31 32  1  0
 32  1  1  0
  1  2  2  0
  2  3  1  0
  3  4  1  0
  4  5  1  0
  4  6  1  0
  6  7  1  0
  7 33  1  0
 33 34  1  0
  7  8  1  0
  8 35  1  0
 35 36  1  0
  8  9  1  0
  9 10  1  0
  9 11  1  0
 11 12  2  0
 12 13  1  0
 12 14  1  0
 14 39  1  0
 39 40  1  0
 40 41  1  0
 40 42  2  0
 14 15  1  0
 15 37  1  0
 37 38  1  0
 15 16  1  0
 16 17  2  0
 17 18  1  0
 18 19  2  0
 19 20  1  0
 19 21  1  0
 21 22  2  0
 21 23  1  0
 23 24  1  0
 24 25  2  0
 25 26  1  0
 26 27  2  0
 24 28  1  0
 28 29  2  0
 26  1  1  0
 28  2  1  0
 41 43  1  0
 41 44  1  0
 23 30  1  0
M  END
> <minimizedAffinity>
-7.88549

> <CNNscore>
0.5559032559

> <CNNaffinity>
6.8441753387

> <CNN_VS>
3.8046994209

> <CNNaffinity_variance>
0.2654422820

$$$$



 44 45  0  0  0  0  0  0  0  0999 V2000
   28.0281  -36.3030   -8.9889 C   0  0  0  0  0  0  0  0  0  0  0  0
   26.9343  -35.5197   -8.9900 C   0  0  0  0  0  0  0  0  0  0  0  0
   26.0124  -35.3671  -10.1819 C   0  0  0  0  0  0  0  0  0  0  0  0
   24.7906  -36.3236  -10.1696 C   0  0  0  0  0  0  0  0  0  0  0  0
   24.2171  -36.4041  -11.5891 C   0  0  0  0  0  0  0  0  0  0  0  0
   23.7294  -35.8736   -9.1288 C   0  0  0  0  0  0  0  0  0  0  0  0
   22.5768  -36.8732   -8.8952 C   0  0  0  0  0  0  0  0  0  0  0  0
   21.8259  -36.5791   -7.5495 C   0  0  0  0  0  0  0  0  0  0  0  0
   21.0424  -35.2297   -7.4707 C   0  0  0  0  0  0  0  0  0  0  0  0
   19.8737  -35.1103   -8.4526 C   0  0  0  0  0  0  0  0  0  0  0  0
   20.4671  -35.0463   -6.0673 C   0  0  0  0  0  0  0  0  0  0  0  0
   20.5544  -33.9800   -5.2405 C   0  0  0  0  0  0  0  0  0  0  0  0
   21.2773  -32.7147   -5.6136 C   0  0  0  0  0  0  0  0  0  0  0  0
   19.8260  -34.0045   -3.8892 C   0  0  0  0  0  0  0  0  0  0  0  0
   20.6709  -34.4731   -2.6483 C   0  0  0  0  0  0  0  0  0  0  0  0
   21.6934  -33.4808   -2.1241 C   0  0  0  0  0  0  0  0  0  0  0  0
   22.9882  -33.2912   -2.4327 C   0  0  0  0  0  0  0  0  0  0  0  0
   23.7117  -33.9664   -3.4854 C   0  0  0  0  0  0  0  0  0  0  0  0
   24.9639  -33.7046   -3.9093 C   0  0  0  0  0  0  0  0  0  0  0  0
   25.9011  -32.6703   -3.3663 C   0  0  0  0  0  0  0  0  0  0  0  0
   25.3690  -34.4437   -5.1504 C   0  0  0  0  0  0  0  0  0  0  0  0
   24.5375  -34.9285   -5.9117 O   0  0  0  0  0  0  0  0  0  0  0  0
   26.7318  -34.5911   -5.3241 N   0  0  0  0  0  0  0  0  0  0  0  0
   27.2759  -35.0523   -6.5074 C   0  0  0  0  0  0  0  0  0  0  0  0
   28.3908  -35.7849   -6.5223 C   0  0  0  0  0  0  0  0  0  0  0  0
   28.9109  -36.3624   -7.7758 C   0  0  0  0  0  0  0  0  0  0  0  0
   30.0087  -36.9078   -7.7621 O   0  0  0  0  0  0  0  0  0  0  0  0
   26.6649  -34.6495   -7.8173 C   0  0  0  0  0  0  0  0  0  0  0  0
   26.0323  -33.6044   -7.9369 O   0  0  0  0  0  0  0  0  0  0  0  0
   27.3346  -34.3599   -4.5808 H   0  0  0  0  0  0  0  0  0  0  0  0
   27.9047  -38.4550   -9.9791 C   0  0  0  0  0  0  0  0  0  0  0  0
   28.2968  -37.0901  -10.1022 O   0  0  0  0  0  0  0  0  0  0  0  0
   21.7304  -36.8383  -10.0514 O   0  0  0  0  0  0  0  0  0  0  0  0
   21.2781  -38.1143  -10.4833 C   0  0  0  0  0  0  0  0  0  0  0  0
   20.9186  -37.6693   -7.2527 O   0  0  0  0  0  0  0  0  0  0  0  0
   21.5935  -38.8425   -6.8175 C   0  0  0  0  0  0  0  0  0  0  0  0
   21.2991  -35.7501   -2.8450 O   0  0  0  0  0  0  0  0  0  0  0  0
   21.6212  -36.0133   -4.2038 C   0  0  0  0  0  0  0  0  0  0  0  0
   19.2323  -32.7030   -3.6762 O   0  0  0  0  0  0  0  0  0  0  0  0
   17.8997  -32.6301   -3.8584 C   0  0  0  0  0  0  0  0  0  0  0  0
   17.6239  -31.8185   -4.9023 N   0  0  0  0  0  0  0  0  0  0  0  0
   17.0431  -33.1955   -3.1995 O   0  0  0  0  0  0  0  0  0  0  0  0
   18.3573  -31.3883   -5.3985 H   0  0  0  0  0  0  0  0  0  0  0  0
   16.6894  -31.6572   -5.1669 H   0  0  0  0  0  0  0  0  0  0  0  0
 31 32  1  0
 32  1  1  0
  1  2  2  0
  2  3  1  0
  3  4  1  0
  4  5  1  0
  4  6  1  0
  6  7  1  0
  7 33  1  0
 33 34  1  0
  7  8  1  0
  8 35  1  0
 35 36  1  0
  8  9  1  0
  9 10  1  0
  9 11  1  0
 11 12  2  0
 12 13  1  0
 12 14  1  0
 14 39  1  0
 39 40  1  0
 40 41  1  0
 40 42  2  0
 14 15  1  0
 15 37  1  0
 37 38  1  0
 15 16  1  0
 16 17  2  0
 17 18  1  0
 18 19  2  0
 19 20  1  0
 19 21  1  0
 21 22  2  0
 21 23  1  0
 23 24  1  0
 24 25  2  0
 25 26  1  0
 26 27  2  0
 24 28  1  0
 28 29  2  0
 26  1  1  0
 28  2  1  0
 41 43  1  0
 41 44  1  0
 23 30  1  0
M  END
> <minimizedAffinity>
-7.00293

> <CNNscore>
0.4439839721

> <CNNaffinity>
6.1982440948

> <CNN_VS>
2.7519209385

> <CNNaffinity_variance>
0.3153865337

$$$$



 44 45  0  0  0  0  0  0  0  0999 V2000
   26.6427  -31.1897   -3.4980 C   0  0  0  0  0  0  0  0  0  0  0  0
   27.4101  -30.4538   -4.3224 C   0  0  0  0  0  0  0  0  0  0  0  0
   28.1226  -31.0191   -5.5334 C   0  0  0  0  0  0  0  0  0  0  0  0
   27.3306  -30.8822   -6.8608 C   0  0  0  0  0  0  0  0  0  0  0  0
   27.9131  -31.8656   -7.8826 C   0  0  0  0  0  0  0  0  0  0  0  0
   27.3411  -29.4180   -7.3783 C   0  0  0  0  0  0  0  0  0  0  0  0
   26.4094  -29.1409   -8.5772 C   0  0  0  0  0  0  0  0  0  0  0  0
   26.1285  -27.6064   -8.7431 C   0  0  0  0  0  0  0  0  0  0  0  0
   27.3507  -26.7132   -9.1298 C   0  0  0  0  0  0  0  0  0  0  0  0
   27.9559  -27.0171  -10.5029 C   0  0  0  0  0  0  0  0  0  0  0  0
   26.9347  -25.2432   -9.1405 C   0  0  0  0  0  0  0  0  0  0  0  0
   27.5245  -24.1837   -8.5421 C   0  0  0  0  0  0  0  0  0  0  0  0
   28.7808  -24.3037   -7.7234 C   0  0  0  0  0  0  0  0  0  0  0  0
   26.9538  -22.7747   -8.7570 C   0  0  0  0  0  0  0  0  0  0  0  0
   25.9409  -22.2579   -7.6707 C   0  0  0  0  0  0  0  0  0  0  0  0
   26.5420  -21.8542   -6.3362 C   0  0  0  0  0  0  0  0  0  0  0  0
   26.7713  -22.5587   -5.2144 C   0  0  0  0  0  0  0  0  0  0  0  0
   26.5837  -23.9830   -5.0602 C   0  0  0  0  0  0  0  0  0  0  0  0
   26.9307  -24.7393   -4.0000 C   0  0  0  0  0  0  0  0  0  0  0  0
   27.5663  -24.2696   -2.7278 C   0  0  0  0  0  0  0  0  0  0  0  0
   26.7870  -26.2171   -4.2148 C   0  0  0  0  0  0  0  0  0  0  0  0
   26.7338  -26.7021   -5.3408 O   0  0  0  0  0  0  0  0  0  0  0  0
   26.6509  -26.9647   -3.0608 N   0  0  0  0  0  0  0  0  0  0  0  0
   26.7230  -28.3444   -3.0667 C   0  0  0  0  0  0  0  0  0  0  0  0
   26.0070  -29.0828   -2.2170 C   0  0  0  0  0  0  0  0  0  0  0  0
   26.0068  -30.5557   -2.2946 C   0  0  0  0  0  0  0  0  0  0  0  0
   25.4472  -31.1921   -1.4089 O   0  0  0  0  0  0  0  0  0  0  0  0
   27.6935  -29.0376   -3.9773 C   0  0  0  0  0  0  0  0  0  0  0  0
   28.7206  -28.4861   -4.3613 O   0  0  0  0  0  0  0  0  0  0  0  0
   26.4977  -26.4993   -2.2069 H   0  0  0  0  0  0  0  0  0  0  0  0
   25.1083  -32.8003   -4.3216 C   0  0  0  0  0  0  0  0  0  0  0  0
   26.4079  -32.5245   -3.8051 O   0  0  0  0  0  0  0  0  0  0  0  0
   26.9964  -29.7515   -9.7336 O   0  0  0  0  0  0  0  0  0  0  0  0
   28.4174  -29.7514   -9.7367 C   0  0  0  0  0  0  0  0  0  0  0  0
   25.0736  -27.4094   -9.7169 O   0  0  0  0  0  0  0  0  0  0  0  0
   24.0682  -26.5122   -9.2635 C   0  0  0  0  0  0  0  0  0  0  0  0
   24.8444  -23.1595   -7.4495 O   0  0  0  0  0  0  0  0  0  0  0  0
   24.5404  -23.9614   -8.5825 C   0  0  0  0  0  0  0  0  0  0  0  0
   28.0633  -21.8642   -8.9356 O   0  0  0  0  0  0  0  0  0  0  0  0
   28.6109  -21.8424  -10.1661 C   0  0  0  0  0  0  0  0  0  0  0  0
   27.6361  -21.8321  -11.1010 N   0  0  0  0  0  0  0  0  0  0  0  0
   29.8009  -21.8347  -10.4330 O   0  0  0  0  0  0  0  0  0  0  0  0
   26.6907  -21.8392  -10.8265 H   0  0  0  0  0  0  0  0  0  0  0  0
   27.8711  -21.8175  -12.0569 H   0  0  0  0  0  0  0  0  0  0  0  0
 31 32  1  0
 32  1  1  0
  1  2  2  0
  2  3  1  0
  3  4  1  0
  4  5  1  0
  4  6  1  0
  6  7  1  0
  7 33  1  0
 33 34  1  0
  7  8  1  0
  8 35  1  0
 35 36  1  0
  8  9  1  0
  9 10  1  0
  9 11  1  0
 11 12  2  0
 12 13  1  0
 12 14  1  0
 14 39  1  0
 39 40  1  0
 40 41  1  0
 40 42  2  0
 14 15  1  0
 15 37  1  0
 37 38  1  0
 15 16  1  0
 16 17  2  0
 17 18  1  0
 18 19  2  0
 19 20  1  0
 19 21  1  0
 21 22  2  0
 21 23  1  0
 23 24  1  0
 24 25  2  0
 25 26  1  0
 26 27  2  0
 24 28  1  0
 28 29  2  0
 26  1  1  0
 28  2  1  0
 41 43  1  0
 41 44  1  0
 23 30  1  0
M  END
> <minimizedAffinity>
-5.22896

> <CNNscore>
0.2559428811

> <CNNaffinity>
4.8685975075

> <CNN_VS>
1.2460829020

> <CNNaffinity_variance>
0.7580401301

$$$$



 44 45  0  0  0  0  0  0  0  0999 V2000
   26.4605  -30.1758   -3.0975 C   0  0  0  0  0  0  0  0  0  0  0  0
   26.9134  -30.7273   -4.2381 C   0  0  0  0  0  0  0  0  0  0  0  0
   27.7278  -29.9739   -5.2690 C   0  0  0  0  0  0  0  0  0  0  0  0
   29.2633  -30.1233   -5.1020 C   0  0  0  0  0  0  0  0  0  0  0  0
   29.9524  -28.9908   -5.8720 C   0  0  0  0  0  0  0  0  0  0  0  0
   29.7486  -31.5268   -5.5564 C   0  0  0  0  0  0  0  0  0  0  0  0
   31.2244  -31.8446   -5.2353 C   0  0  0  0  0  0  0  0  0  0  0  0
   31.5063  -33.3866   -5.2987 C   0  0  0  0  0  0  0  0  0  0  0  0
   31.3770  -34.0603   -6.7024 C   0  0  0  0  0  0  0  0  0  0  0  0
   32.3859  -33.5681   -7.7435 C   0  0  0  0  0  0  0  0  0  0  0  0
   31.5707  -35.5702   -6.5718 C   0  0  0  0  0  0  0  0  0  0  0  0
   30.7970  -36.5748   -7.0411 C   0  0  0  0  0  0  0  0  0  0  0  0
   29.5398  -36.3359   -7.8319 C   0  0  0  0  0  0  0  0  0  0  0  0
   31.2392  -38.0315   -6.8416 C   0  0  0  0  0  0  0  0  0  0  0  0
   30.6596  -38.7713   -5.5807 C   0  0  0  0  0  0  0  0  0  0  0  0
   29.2005  -39.1835   -5.6611 C   0  0  0  0  0  0  0  0  0  0  0  0
   28.0739  -38.5404   -5.3082 C   0  0  0  0  0  0  0  0  0  0  0  0
   27.9928  -37.1744   -4.8443 C   0  0  0  0  0  0  0  0  0  0  0  0
   26.8745  -36.4585   -4.6137 C   0  0  0  0  0  0  0  0  0  0  0  0
   25.4592  -36.9260   -4.7606 C   0  0  0  0  0  0  0  0  0  0  0  0
   27.1127  -35.0054   -4.3268 C   0  0  0  0  0  0  0  0  0  0  0  0
   28.1591  -34.4491   -4.6455 O   0  0  0  0  0  0  0  0  0  0  0  0
   26.1035  -34.3755   -3.6241 N   0  0  0  0  0  0  0  0  0  0  0  0
   26.0647  -33.0035   -3.4654 C   0  0  0  0  0  0  0  0  0  0  0  0
   25.5680  -32.4440   -2.3608 C   0  0  0  0  0  0  0  0  0  0  0  0
   25.6229  -30.9853   -2.1500 C   0  0  0  0  0  0  0  0  0  0  0  0
   25.0312  -30.5063   -1.1893 O   0  0  0  0  0  0  0  0  0  0  0  0
   26.4988  -32.1092   -4.5894 C   0  0  0  0  0  0  0  0  0  0  0  0
   26.4419  -32.4745   -5.7599 O   0  0  0  0  0  0  0  0  0  0  0  0
   25.3891  -34.9218   -3.2235 H   0  0  0  0  0  0  0  0  0  0  0  0
   25.9152  -27.8725   -3.2525 C   0  0  0  0  0  0  0  0  0  0  0  0
   26.8216  -28.8699   -2.7884 O   0  0  0  0  0  0  0  0  0  0  0  0
   32.0391  -31.0690   -6.1238 O   0  0  0  0  0  0  0  0  0  0  0  0
   32.9987  -30.2492   -5.4709 C   0  0  0  0  0  0  0  0  0  0  0  0
   32.8250  -33.6604   -4.7639 O   0  0  0  0  0  0  0  0  0  0  0  0
   33.8542  -33.5012   -5.7318 C   0  0  0  0  0  0  0  0  0  0  0  0
   30.8896  -38.0584   -4.3548 O   0  0  0  0  0  0  0  0  0  0  0  0
   30.4245  -36.7162   -4.3908 C   0  0  0  0  0  0  0  0  0  0  0  0
   30.9651  -38.7545   -8.0638 O   0  0  0  0  0  0  0  0  0  0  0  0
   32.0052  -38.8923   -8.9087 C   0  0  0  0  0  0  0  0  0  0  0  0
   32.8985  -39.7663   -8.3965 N   0  0  0  0  0  0  0  0  0  0  0  0
   32.1522  -38.3283   -9.9800 O   0  0  0  0  0  0  0  0  0  0  0  0
   32.7269  -40.1921   -7.5256 H   0  0  0  0  0  0  0  0  0  0  0  0
   33.7213  -39.9776   -8.8941 H   0  0  0  0  0  0  0  0  0  0  0  0
 31 32  1  0
 32  1  1  0
  1  2  2  0
  2  3  1  0
  3  4  1  0
  4  5  1  0
  4  6  1  0
  6  7  1  0
  7 33  1  0
 33 34  1  0
  7  8  1  0
  8 35  1  0
 35 36  1  0
  8  9  1  0
  9 10  1  0
  9 11  1  0
 11 12  2  0
 12 13  1  0
 12 14  1  0
 14 39  1  0
 39 40  1  0
 40 41  1  0
 40 42  2  0
 14 15  1  0
 15 37  1  0
 37 38  1  0
 15 16  1  0
 16 17  2  0
 17 18  1  0
 18 19  2  0
 19 20  1  0
 19 21  1  0
 21 22  2  0
 21 23  1  0
 23 24  1  0
 24 25  2  0
 25 26  1  0
 26 27  2  0
 24 28  1  0
 28 29  2  0
 26  1  1  0
 28  2  1  0
 41 43  1  0
 41 44  1  0
 23 30  1  0
M  END
> <minimizedAffinity>
-5.65834

> <CNNscore>
0.2099186033

> <CNNaffinity>
5.5622658730

> <CNN_VS>
1.1676230431

> <CNNaffinity_variance>
0.2511872947

$$$$



 44 45  0  0  0  0  0  0  0  0999 V2000
   27.6003  -25.9819   -5.0543 C   0  0  0  0  0  0  0  0  0  0  0  0
   27.5835  -26.9873   -5.9482 C   0  0  0  0  0  0  0  0  0  0  0  0
   28.3433  -26.9585   -7.2580 C   0  0  0  0  0  0  0  0  0  0  0  0
   29.7453  -27.6207   -7.1965 C   0  0  0  0  0  0  0  0  0  0  0  0
   30.5703  -27.1332   -8.3933 C   0  0  0  0  0  0  0  0  0  0  0  0
   29.6387  -29.1692   -7.1445 C   0  0  0  0  0  0  0  0  0  0  0  0
   30.9663  -29.9079   -6.8727 C   0  0  0  0  0  0  0  0  0  0  0  0
   30.7158  -31.3790   -6.3885 C   0  0  0  0  0  0  0  0  0  0  0  0
   30.0650  -32.3510   -7.4242 C   0  0  0  0  0  0  0  0  0  0  0  0
   30.9175  -32.6270   -8.6656 C   0  0  0  0  0  0  0  0  0  0  0  0
   29.7873  -33.7005   -6.7640 C   0  0  0  0  0  0  0  0  0  0  0  0
   28.6472  -34.4274   -6.7517 C   0  0  0  0  0  0  0  0  0  0  0  0
   27.3899  -33.9857   -7.4495 C   0  0  0  0  0  0  0  0  0  0  0  0
   28.6307  -35.8037   -6.0715 C   0  0  0  0  0  0  0  0  0  0  0  0
   28.1429  -35.8387   -4.5769 C   0  0  0  0  0  0  0  0  0  0  0  0
   26.6501  -35.6685   -4.3580 C   0  0  0  0  0  0  0  0  0  0  0  0
   25.8997  -34.5706   -4.1609 C   0  0  0  0  0  0  0  0  0  0  0  0
   26.3683  -33.2055   -4.2293 C   0  0  0  0  0  0  0  0  0  0  0  0
   25.6214  -32.0851   -4.1729 C   0  0  0  0  0  0  0  0  0  0  0  0
   24.1362  -32.0003   -3.9994 C   0  0  0  0  0  0  0  0  0  0  0  0
   26.3720  -30.8201   -4.4679 C   0  0  0  0  0  0  0  0  0  0  0  0
   27.4418  -30.8313   -5.0691 O   0  0  0  0  0  0  0  0  0  0  0  0
   25.8039  -29.6703   -3.9540 N   0  0  0  0  0  0  0  0  0  0  0  0
   26.2448  -28.4104   -4.3108 C   0  0  0  0  0  0  0  0  0  0  0  0
   26.2158  -27.3924   -3.4489 C   0  0  0  0  0  0  0  0  0  0  0  0
   26.7824  -26.0764   -3.7986 C   0  0  0  0  0  0  0  0  0  0  0  0
   26.6079  -25.1370   -3.0307 O   0  0  0  0  0  0  0  0  0  0  0  0
   26.6791  -28.1431   -5.7220 C   0  0  0  0  0  0  0  0  0  0  0  0
   26.2465  -28.8017   -6.6632 O   0  0  0  0  0  0  0  0  0  0  0  0
   25.0611  -29.7513   -3.3130 H   0  0  0  0  0  0  0  0  0  0  0  0
   29.6624  -24.9075   -4.5850 C   0  0  0  0  0  0  0  0  0  0  0  0
   28.4216  -24.8851   -5.2862 O   0  0  0  0  0  0  0  0  0  0  0  0
   31.7654  -29.8159   -8.0591 O   0  0  0  0  0  0  0  0  0  0  0  0
   31.0186  -29.8155   -9.2681 C   0  0  0  0  0  0  0  0  0  0  0  0
   31.9610  -31.9535   -5.9202 O   0  0  0  0  0  0  0  0  0  0  0  0
   32.4050  -31.3797   -4.6975 C   0  0  0  0  0  0  0  0  0  0  0  0
   28.8589  -34.9258   -3.7296 O   0  0  0  0  0  0  0  0  0  0  0  0
   30.1983  -35.3278   -3.4775 C   0  0  0  0  0  0  0  0  0  0  0  0
   27.8717  -36.7077   -6.9073 O   0  0  0  0  0  0  0  0  0  0  0  0
   28.1641  -38.0155   -6.7719 C   0  0  0  0  0  0  0  0  0  0  0  0
   27.0322  -38.7168   -6.5452 N   0  0  0  0  0  0  0  0  0  0  0  0
   29.2707  -38.5243   -6.8361 O   0  0  0  0  0  0  0  0  0  0  0  0
   26.1652  -38.2521   -6.5036 H   0  0  0  0  0  0  0  0  0  0  0  0
   27.0741  -39.6926   -6.4216 H   0  0  0  0  0  0  0  0  0  0  0  0
 31 32  1  0
 32  1  1  0
  1  2  2  0
  2  3  1  0
  3  4  1  0
  4  5  1  0
  4  6  1  0
  6  7  1  0
  7 33  1  0
 33 34  1  0
  7  8  1  0
  8 35  1  0
 35 36  1  0
  8  9  1  0
  9 10  1  0
  9 11  1  0
 11 12  2  0
 12 13  1  0
 12 14  1  0
 14 39  1  0
 39 40  1  0
 40 41  1  0
 40 42  2  0
 14 15  1  0
 15 37  1  0
 37 38  1  0
 15 16  1  0
 16 17  2  0
 17 18  1  0
 18 19  2  0
 19 20  1  0
 19 21  1  0
 21 22  2  0
 21 23  1  0
 23 24  1  0
 24 25  2  0
 25 26  1  0
 26 27  2  0
 24 28  1  0
 28 29  2  0
 26  1  1  0
 28  2  1  0
 41 43  1  0
 41 44  1  0
 23 30  1  0
M  END
> <minimizedAffinity>
-5.40224

> <CNNscore>
0.1908324808

> <CNNaffinity>
5.3713722229

> <CNN_VS>
1.0250322819

> <CNNaffinity_variance>
0.3051615953

$$$$



 44 45  0  0  0  0  0  0  0  0999 V2000
   29.0722  -36.9401   -7.3729 C   0  0  0  0  0  0  0  0  0  0  0  0
   29.2311  -35.9303   -6.4981 C   0  0  0  0  0  0  0  0  0  0  0  0
   30.5737  -35.5075   -5.9392 C   0  0  0  0  0  0  0  0  0  0  0  0
   31.2560  -34.3548   -6.7224 C   0  0  0  0  0  0  0  0  0  0  0  0
   32.7474  -34.3367   -6.3674 C   0  0  0  0  0  0  0  0  0  0  0  0
   30.5657  -32.9924   -6.4411 C   0  0  0  0  0  0  0  0  0  0  0  0
   31.0382  -31.8231   -7.3309 C   0  0  0  0  0  0  0  0  0  0  0  0
   30.0115  -30.6370   -7.3128 C   0  0  0  0  0  0  0  0  0  0  0  0
   29.8316  -29.8933   -5.9507 C   0  0  0  0  0  0  0  0  0  0  0  0
   31.0812  -29.1638   -5.4503 C   0  0  0  0  0  0  0  0  0  0  0  0
   28.7237  -28.8485   -6.0737 C   0  0  0  0  0  0  0  0  0  0  0  0
   27.6528  -28.6402   -5.2749 C   0  0  0  0  0  0  0  0  0  0  0  0
   27.3790  -29.4631   -4.0457 C   0  0  0  0  0  0  0  0  0  0  0  0
   26.7033  -27.4696   -5.5666 C   0  0  0  0  0  0  0  0  0  0  0  0
   25.4328  -27.7995   -6.4327 C   0  0  0  0  0  0  0  0  0  0  0  0
   24.3294  -28.5717   -5.7316 C   0  0  0  0  0  0  0  0  0  0  0  0
   24.1033  -29.8918   -5.6154 C   0  0  0  0  0  0  0  0  0  0  0  0
   24.9850  -30.9417   -6.0718 C   0  0  0  0  0  0  0  0  0  0  0  0
   24.8564  -32.2650   -5.8517 C   0  0  0  0  0  0  0  0  0  0  0  0
   23.7540  -32.9514   -5.1056 C   0  0  0  0  0  0  0  0  0  0  0  0
   26.0350  -33.0862   -6.2847 C   0  0  0  0  0  0  0  0  0  0  0  0
   27.1409  -32.5838   -6.4590 O   0  0  0  0  0  0  0  0  0  0  0  0
   25.7597  -34.4170   -6.5344 N   0  0  0  0  0  0  0  0  0  0  0  0
   26.7599  -35.3496   -6.7314 C   0  0  0  0  0  0  0  0  0  0  0  0
   26.5938  -36.3853   -7.5557 C   0  0  0  0  0  0  0  0  0  0  0  0
   27.6979  -37.3199   -7.8435 C   0  0  0  0  0  0  0  0  0  0  0  0
   27.4592  -38.3313   -8.4937 O   0  0  0  0  0  0  0  0  0  0  0  0
   28.0297  -35.2619   -5.9369 C   0  0  0  0  0  0  0  0  0  0  0  0
   28.0609  -34.7277   -4.8321 O   0  0  0  0  0  0  0  0  0  0  0  0
   24.8207  -34.7102   -6.5731 H   0  0  0  0  0  0  0  0  0  0  0  0
   30.6053  -37.1657   -9.1688 C   0  0  0  0  0  0  0  0  0  0  0  0
   30.1973  -37.5872   -7.8697 O   0  0  0  0  0  0  0  0  0  0  0  0
   32.3559  -31.4563   -6.9025 O   0  0  0  0  0  0  0  0  0  0  0  0
   32.5972  -31.6579   -5.5167 C   0  0  0  0  0  0  0  0  0  0  0  0
   30.3681  -29.6721   -8.3335 O   0  0  0  0  0  0  0  0  0  0  0  0
   29.6892  -29.8964   -9.5624 C   0  0  0  0  0  0  0  0  0  0  0  0
   25.7515  -28.4423   -7.6774 O   0  0  0  0  0  0  0  0  0  0  0  0
   26.1232  -27.5294   -8.7009 C   0  0  0  0  0  0  0  0  0  0  0  0
   26.3511  -26.8533   -4.3064 O   0  0  0  0  0  0  0  0  0  0  0  0
   25.6459  -27.6228   -3.4550 C   0  0  0  0  0  0  0  0  0  0  0  0
   24.5218  -26.9762   -3.0773 N   0  0  0  0  0  0  0  0  0  0  0  0
   25.9469  -28.7373   -3.0616 O   0  0  0  0  0  0  0  0  0  0  0  0
   24.3301  -26.0764   -3.4277 H   0  0  0  0  0  0  0  0  0  0  0  0
   23.8941  -27.4048   -2.4516 H   0  0  0  0  0  0  0  0  0  0  0  0
 31 32  1  0
 32  1  1  0
  1  2  2  0
  2  3  1  0
  3  4  1  0
  4  5  1  0
  4  6  1  0
  6  7  1  0
  7 33  1  0
 33 34  1  0
  7  8  1  0
  8 35  1  0
 35 36  1  0
  8  9  1  0
  9 10  1  0
  9 11  1  0
 11 12  2  0
 12 13  1  0
 12 14  1  0
 14 39  1  0
 39 40  1  0
 40 41  1  0
 40 42  2  0
 14 15  1  0
 15 37  1  0
 37 38  1  0
 15 16  1  0
 16 17  2  0
 17 18  1  0
 18 19  2  0
 19 20  1  0
 19 21  1  0
 21 22  2  0
 21 23  1  0
 23 24  1  0
 24 25  2  0
 25 26  1  0
 26 27  2  0
 24 28  1  0
 28 29  2  0
 26  1  1  0
 28  2  1  0
 41 43  1  0
 41 44  1  0
 23 30  1  0
M  END
> <minimizedAffinity>
-5.35903

> <CNNscore>
0.1890172362

> <CNNaffinity>
4.9855289459

> <CNN_VS>
0.9423509240

> <CNNaffinity_variance>
0.4624596834

$$$$



 44 45  0  0  0  0  0  0  0  0999 V2000
   25.6986  -31.1473   -3.0708 C   0  0  0  0  0  0  0  0  0  0  0  0
   25.8088  -31.3100   -4.4018 C   0  0  0  0  0  0  0  0  0  0  0  0
   26.8216  -30.5763   -5.2559 C   0  0  0  0  0  0  0  0  0  0  0  0
   28.1414  -31.3573   -5.4925 C   0  0  0  0  0  0  0  0  0  0  0  0
   29.2207  -30.3687   -5.9490 C   0  0  0  0  0  0  0  0  0  0  0  0
   27.9391  -32.5187   -6.5034 C   0  0  0  0  0  0  0  0  0  0  0  0
   29.1387  -33.4794   -6.6454 C   0  0  0  0  0  0  0  0  0  0  0  0
   28.7114  -34.8377   -7.3039 C   0  0  0  0  0  0  0  0  0  0  0  0
   28.2332  -34.7703   -8.7898 C   0  0  0  0  0  0  0  0  0  0  0  0
   29.3053  -34.3232   -9.7872 C   0  0  0  0  0  0  0  0  0  0  0  0
   27.7500  -36.1477   -9.2410 C   0  0  0  0  0  0  0  0  0  0  0  0
   26.5924  -36.4900   -9.8502 C   0  0  0  0  0  0  0  0  0  0  0  0
   25.5321  -35.4860  -10.2115 C   0  0  0  0  0  0  0  0  0  0  0  0
   26.3589  -37.9469  -10.2746 C   0  0  0  0  0  0  0  0  0  0  0  0
   25.5736  -38.8536   -9.2576 C   0  0  0  0  0  0  0  0  0  0  0  0
   24.0797  -38.6023   -9.1553 C   0  0  0  0  0  0  0  0  0  0  0  0
   23.3680  -37.7826   -8.3621 C   0  0  0  0  0  0  0  0  0  0  0  0
   23.9171  -36.8112   -7.4442 C   0  0  0  0  0  0  0  0  0  0  0  0
   23.2391  -35.8843   -6.7389 C   0  0  0  0  0  0  0  0  0  0  0  0
   21.7571  -35.6681   -6.7261 C   0  0  0  0  0  0  0  0  0  0  0  0
   24.1046  -34.8906   -6.0218 C   0  0  0  0  0  0  0  0  0  0  0  0
   25.2727  -34.7009   -6.3469 O   0  0  0  0  0  0  0  0  0  0  0  0
   23.5091  -34.2702   -4.9403 N   0  0  0  0  0  0  0  0  0  0  0  0
   24.0843  -33.1849   -4.3077 C   0  0  0  0  0  0  0  0  0  0  0  0
   23.9366  -32.9841   -2.9971 C   0  0  0  0  0  0  0  0  0  0  0  0
   24.6364  -31.8843   -2.3071 C   0  0  0  0  0  0  0  0  0  0  0  0
   24.3614  -31.6547   -1.1348 O   0  0  0  0  0  0  0  0  0  0  0  0
   24.8134  -32.1507   -5.1140 C   0  0  0  0  0  0  0  0  0  0  0  0
   24.5466  -31.9514   -6.2955 O   0  0  0  0  0  0  0  0  0  0  0  0
   22.6472  -34.6126   -4.6099 H   0  0  0  0  0  0  0  0  0  0  0  0
   26.1838  -28.9845   -2.2262 C   0  0  0  0  0  0  0  0  0  0  0  0
   26.6106  -30.3318   -2.4118 O   0  0  0  0  0  0  0  0  0  0  0  0
   30.1682  -32.7858   -7.3620 O   0  0  0  0  0  0  0  0  0  0  0  0
   29.6868  -31.8791   -8.3447 C   0  0  0  0  0  0  0  0  0  0  0  0
   29.7995  -35.7892   -7.2014 O   0  0  0  0  0  0  0  0  0  0  0  0
   30.0879  -36.1509   -5.8570 C   0  0  0  0  0  0  0  0  0  0  0  0
   26.1509  -38.8544   -7.9421 O   0  0  0  0  0  0  0  0  0  0  0  0
   27.1456  -39.8539   -7.7667 C   0  0  0  0  0  0  0  0  0  0  0  0
   25.7377  -37.9393  -11.5807 O   0  0  0  0  0  0  0  0  0  0  0  0
   26.5402  -38.2634  -12.6128 C   0  0  0  0  0  0  0  0  0  0  0  0
   26.6437  -37.2157  -13.4590 N   0  0  0  0  0  0  0  0  0  0  0  0
   27.1028  -39.3309  -12.7899 O   0  0  0  0  0  0  0  0  0  0  0  0
   26.1661  -36.3770  -13.2647 H   0  0  0  0  0  0  0  0  0  0  0  0
   27.1966  -37.2907  -14.2701 H   0  0  0  0  0  0  0  0  0  0  0  0
 31 32  1  0
 32  1  1  0
  1  2  2  0
  2  3  1  0
  3  4  1  0
  4  5  1  0
  4  6  1  0
  6  7  1  0
  7 33  1  0
 33 34  1  0
  7  8  1  0
  8 35  1  0
 35 36  1  0
  8  9  1  0
  9 10  1  0
  9 11  1  0
 11 12  2  0
 12 13  1  0
 12 14  1  0
 14 39  1  0
 39 40  1  0
 40 41  1  0
 40 42  2  0
 14 15  1  0
 15 37  1  0
 37 38  1  0
 15 16  1  0
 16 17  2  0
 17 18  1  0
 18 19  2  0
 19 20  1  0
 19 21  1  0
 21 22  2  0
 21 23  1  0
 23 24  1  0
 24 25  2  0
 25 26  1  0
 26 27  2  0
 24 28  1  0
 28 29  2  0
 26  1  1  0
 28  2  1  0
 41 43  1  0
 41 44  1  0
 23 30  1  0
M  END
> <minimizedAffinity>
-5.12804

> <CNNscore>
0.1795782745

> <CNNaffinity>
4.3999009132

> <CNN_VS>
0.7901266217

> <CNNaffinity_variance>
0.9474733472

$$$$



 44 45  0  0  0  0  0  0  0  0999 V2000
   26.8233  -37.0283  -11.4108 C   0  0  0  0  0  0  0  0  0  0  0  0
   25.8086  -36.2193  -11.0561 C   0  0  0  0  0  0  0  0  0  0  0  0
   24.5273  -36.0818  -11.8518 C   0  0  0  0  0  0  0  0  0  0  0  0
   23.3775  -37.0077  -11.3739 C   0  0  0  0  0  0  0  0  0  0  0  0
   22.3391  -37.1187  -12.4964 C   0  0  0  0  0  0  0  0  0  0  0  0
   22.7570  -36.5001  -10.0438 C   0  0  0  0  0  0  0  0  0  0  0  0
   21.7496  -37.4639   -9.3817 C   0  0  0  0  0  0  0  0  0  0  0  0
   21.5252  -37.1098   -7.8699 C   0  0  0  0  0  0  0  0  0  0  0  0
   20.8355  -35.7401   -7.5712 C   0  0  0  0  0  0  0  0  0  0  0  0
   19.3970  -35.6234   -8.0823 C   0  0  0  0  0  0  0  0  0  0  0  0
   20.7945  -35.4993   -6.0630 C   0  0  0  0  0  0  0  0  0  0  0  0
   21.1802  -34.4101   -5.3607 C   0  0  0  0  0  0  0  0  0  0  0  0
   21.7395  -33.1748   -6.0120 C   0  0  0  0  0  0  0  0  0  0  0  0
   20.9752  -34.3749   -3.8396 C   0  0  0  0  0  0  0  0  0  0  0  0
   22.1981  -34.8248   -2.9591 C   0  0  0  0  0  0  0  0  0  0  0  0
   23.3512  -33.8414   -2.8664 C   0  0  0  0  0  0  0  0  0  0  0  0
   24.4559  -33.6928   -3.6181 C   0  0  0  0  0  0  0  0  0  0  0  0
   24.7536  -34.4178   -4.8319 C   0  0  0  0  0  0  0  0  0  0  0  0
   25.7786  -34.1996   -5.6793 C   0  0  0  0  0  0  0  0  0  0  0  0
   26.8590  -33.1717   -5.5406 C   0  0  0  0  0  0  0  0  0  0  0  0
   25.7113  -34.9866   -6.9548 C   0  0  0  0  0  0  0  0  0  0  0  0
   24.6591  -35.4748   -7.3556 O   0  0  0  0  0  0  0  0  0  0  0  0
   26.9233  -35.1721   -7.5916 N   0  0  0  0  0  0  0  0  0  0  0  0
   27.0095  -35.6830   -8.8724 C   0  0  0  0  0  0  0  0  0  0  0  0
   28.0390  -36.4423   -9.2514 C   0  0  0  0  0  0  0  0  0  0  0  0
   28.0767  -37.0711  -10.5850 C   0  0  0  0  0  0  0  0  0  0  0  0
   29.1023  -37.6420  -10.9383 O   0  0  0  0  0  0  0  0  0  0  0  0
   25.9803  -35.3067   -9.8973 C   0  0  0  0  0  0  0  0  0  0  0  0
   25.3584  -34.2508   -9.8258 O   0  0  0  0  0  0  0  0  0  0  0  0
   27.7522  -34.9325   -7.1174 H   0  0  0  0  0  0  0  0  0  0  0  0
   27.2528  -37.3585  -13.7201 C   0  0  0  0  0  0  0  0  0  0  0  0
   26.6728  -37.8560  -12.5169 O   0  0  0  0  0  0  0  0  0  0  0  0
   20.5501  -37.4446  -10.1662 O   0  0  0  0  0  0  0  0  0  0  0  0
   20.0207  -38.7311  -10.4561 C   0  0  0  0  0  0  0  0  0  0  0  0
   20.7684  -38.1681   -7.2317 O   0  0  0  0  0  0  0  0  0  0  0  0
   21.5765  -39.2814   -6.8728 C   0  0  0  0  0  0  0  0  0  0  0  0
   22.7017  -36.1220   -3.3161 O   0  0  0  0  0  0  0  0  0  0  0  0
   23.3458  -36.7893   -2.2396 C   0  0  0  0  0  0  0  0  0  0  0  0
   20.5099  -33.0534   -3.4804 O   0  0  0  0  0  0  0  0  0  0  0  0
   19.4530  -33.0112   -2.6464 C   0  0  0  0  0  0  0  0  0  0  0  0
   18.4695  -33.8109   -3.1126 N   0  0  0  0  0  0  0  0  0  0  0  0
   19.3621  -32.3599   -1.6192 O   0  0  0  0  0  0  0  0  0  0  0  0
   18.5989  -34.3139   -3.9490 H   0  0  0  0  0  0  0  0  0  0  0  0
   17.6231  -33.8909   -2.6161 H   0  0  0  0  0  0  0  0  0  0  0  0
 31 32  1  0
 32  1  1  0
  1  2  2  0
  2  3  1  0
  3  4  1  0
  4  5  1  0
  4  6  1  0
  6  7  1  0
  7 33  1  0
 33 34  1  0
  7  8  1  0
  8 35  1  0
 35 36  1  0
  8  9  1  0
  9 10  1  0
  9 11  1  0
 11 12  2  0
 12 13  1  0
 12 14  1  0
 14 39  1  0
 39 40  1  0
 40 41  1  0
 40 42  2  0
 14 15  1  0
 15 37  1  0
 37 38  1  0
 15 16  1  0
 16 17  2  0
 17 18  1  0
 18 19  2  0
 19 20  1  0
 19 21  1  0
 21 22  2  0
 21 23  1  0
 23 24  1  0
 24 25  2  0
 25 26  1  0
 26 27  2  0
 24 28  1  0
 28 29  2  0
 26  1  1  0
 28  2  1  0
 41 43  1  0
 41 44  1  0
 23 30  1  0
M  END
> <minimizedAffinity>
-6.19687

> <CNNscore>
0.1774975210

> <CNNaffinity>
5.5980706215

> <CNN_VS>
0.9936436415

> <CNNaffinity_variance>
0.6298763156

$$$$
