


 42 46  0  0  0  0  0  0  0  0999 V2000
  -16.5311   19.8842   -5.1804 C   0  0  0  0  0  0  0  0  0  0  0  0
  -15.2506   19.0862   -4.9150 C   0  0  0  0  0  0  0  0  0  0  0  0
  -15.6904   17.7033   -4.7891 N   0  0  0  0  0  0  0  0  0  0  0  0
  -16.7794   17.5217   -5.7616 C   0  0  0  0  0  0  0  0  0  0  0  0
  -17.4640   18.8922   -5.9142 C   0  0  0  0  0  0  0  0  0  0  0  0
  -16.0291   17.5259   -3.8435 H   0  0  0  0  0  0  0  0  0  0  0  0
  -17.1158   20.4836   -3.9386 N   0  0  0  0  0  0  0  0  0  0  0  0
  -18.2948   22.2432   -2.5360 O   0  0  0  0  0  0  0  0  0  0  0  0
  -17.4631   22.1295   -3.7075 S   0  0  0  0  0  0  0  0  0  0  0  0
  -17.9342   22.6595   -4.9714 O   0  0  0  0  0  0  0  0  0  0  0  0
  -15.8920   22.9203   -3.4457 C   0  0  0  0  0  0  0  0  0  0  0  0
  -14.9956   22.9192   -4.5326 C   0  0  0  0  0  0  0  0  0  0  0  0
  -13.7466   23.5318   -4.4332 C   0  0  0  0  0  0  0  0  0  0  0  0
  -13.3811   24.1599   -3.2500 C   0  0  0  0  0  0  0  0  0  0  0  0
  -14.2770   24.1976   -2.1830 C   0  0  0  0  0  0  0  0  0  0  0  0
  -15.5444   23.5993   -2.2765 C   0  0  0  0  0  0  0  0  0  0  0  0
  -16.5582   23.8199   -0.9009 Cl  0  0  0  0  0  0  0  0  0  0  0  0
  -17.5727   19.5159   -2.9227 C   0  0  0  0  0  0  0  0  0  0  0  0
  -19.0448   19.1546   -2.9954 C   0  0  0  0  0  0  0  0  0  0  0  0
  -19.6879   18.3703   -2.0263 C   0  0  0  0  0  0  0  0  0  0  0  0
  -21.0497   18.0710   -2.1321 C   0  0  0  0  0  0  0  0  0  0  0  0
  -21.7959   18.5683   -3.1968 C   0  0  0  0  0  0  0  0  0  0  0  0
  -21.1780   19.3569   -4.1628 C   0  0  0  0  0  0  0  0  0  0  0  0
  -19.8131   19.6457   -4.0635 C   0  0  0  0  0  0  0  0  0  0  0  0
  -17.7286   19.2945   -7.3619 N   0  0  0  0  0  0  0  0  0  0  0  0
  -17.4276   17.9868   -8.4435 S   0  0  0  0  0  0  0  0  0  0  0  0
  -16.3773   17.1864   -7.8508 O   0  0  0  0  0  0  0  0  0  0  0  0
  -17.2341   18.5605   -9.7516 O   0  0  0  0  0  0  0  0  0  0  0  0
  -18.8956   16.9969   -8.3704 C   0  0  0  0  0  0  0  0  0  0  0  0
  -18.7146   15.6068   -8.5068 C   0  0  0  0  0  0  0  0  0  0  0  0
  -19.8055   14.7378   -8.4775 C   0  0  0  0  0  0  0  0  0  0  0  0
  -21.0903   15.2480   -8.3254 C   0  0  0  0  0  0  0  0  0  0  0  0
  -21.2781   16.6268   -8.2085 C   0  0  0  0  0  0  0  0  0  0  0  0
  -20.1880   17.5110   -8.2399 C   0  0  0  0  0  0  0  0  0  0  0  0
  -20.5765   19.1788   -8.0452 Cl  0  0  0  0  0  0  0  0  0  0  0  0
  -17.1378   20.5969   -7.7774 C   0  0  0  0  0  0  0  0  0  0  0  0
  -15.6302   20.5710   -7.8911 C   0  0  0  0  0  0  0  0  0  0  0  0
  -14.9375   19.4071   -8.2646 C   0  0  0  0  0  0  0  0  0  0  0  0
  -13.5448   19.4077   -8.3601 C   0  0  0  0  0  0  0  0  0  0  0  0
  -12.8307   20.5755   -8.1061 C   0  0  0  0  0  0  0  0  0  0  0  0
  -13.5064   21.7451   -7.7662 C   0  0  0  0  0  0  0  0  0  0  0  0
  -14.8980   21.7461   -7.6635 C   0  0  0  0  0  0  0  0  0  0  0  0
  8  9  2  0
  9 10  2  0
  9 11  1  0
 11 12  2  0
 12 13  1  0
 13 14  2  0
 14 15  1  0
 15 16  2  0
 16 17  1  0
  9  7  1  0
  7 18  1  0
 18 19  1  0
 19 20  2  0
 20 21  1  0
 21 22  2  0
 22 23  1  0
 23 24  2  0
  1  7  1  0
  1  2  1  0
  2  3  1  0
  3  4  1  0
  4  5  1  0
  5 25  1  0
 25 36  1  0
 36 37  1  0
 37 38  2  0
 38 39  1  0
 39 40  2  0
 40 41  1  0
 41 42  2  0
 25 26  1  0
 26 27  2  0
 26 28  2  0
 26 29  1  0
 29 30  2  0
 30 31  1  0
 31 32  2  0
 32 33  1  0
 33 34  2  0
 34 35  1  0
 16 11  1  0
 24 19  1  0
  5  1  1  0
 42 37  1  0
 34 29  1  0
  3  6  1  0
M  END
> <minimizedAffinity>
-10.83087

> <CNNscore>
0.9470507503

> <CNNaffinity>
7.9219260216

> <CNN_VS>
7.5024662018

> <CNNaffinity_variance>
1.4634670019

$$$$



 42 46  0  0  0  0  0  0  0  0999 V2000
  -16.3275   20.0501   -5.6937 C   0  0  0  0  0  0  0  0  0  0  0  0
  -15.0611   19.2194   -5.9239 C   0  0  0  0  0  0  0  0  0  0  0  0
  -14.9718   18.3432   -4.7639 N   0  0  0  0  0  0  0  0  0  0  0  0
  -16.3510   17.9608   -4.4227 C   0  0  0  0  0  0  0  0  0  0  0  0
  -17.2512   19.1304   -4.8608 C   0  0  0  0  0  0  0  0  0  0  0  0
  -14.5391   18.8358   -3.9825 H   0  0  0  0  0  0  0  0  0  0  0  0
  -16.0489   21.3817   -5.0674 N   0  0  0  0  0  0  0  0  0  0  0  0
  -15.2972   20.4317   -2.8344 O   0  0  0  0  0  0  0  0  0  0  0  0
  -15.7877   21.6574   -3.4124 S   0  0  0  0  0  0  0  0  0  0  0  0
  -16.9864   22.2700   -2.8757 O   0  0  0  0  0  0  0  0  0  0  0  0
  -14.5530   22.9343   -3.3267 C   0  0  0  0  0  0  0  0  0  0  0  0
  -13.4471   22.8022   -4.1896 C   0  0  0  0  0  0  0  0  0  0  0  0
  -12.4357   23.7623   -4.2119 C   0  0  0  0  0  0  0  0  0  0  0  0
  -12.5206   24.8699   -3.3788 C   0  0  0  0  0  0  0  0  0  0  0  0
  -13.6298   25.0266   -2.5495 C   0  0  0  0  0  0  0  0  0  0  0  0
  -14.6633   24.0755   -2.5302 C   0  0  0  0  0  0  0  0  0  0  0  0
  -16.0000   24.4715   -1.5178 Cl  0  0  0  0  0  0  0  0  0  0  0  0
  -15.8200   22.4910   -6.0130 C   0  0  0  0  0  0  0  0  0  0  0  0
  -15.1079   22.1050   -7.2963 C   0  0  0  0  0  0  0  0  0  0  0  0
  -15.7593   21.4919   -8.3769 C   0  0  0  0  0  0  0  0  0  0  0  0
  -15.0619   21.1625   -9.5432 C   0  0  0  0  0  0  0  0  0  0  0  0
  -13.7068   21.4596   -9.6570 C   0  0  0  0  0  0  0  0  0  0  0  0
  -13.0452   22.0771   -8.5997 C   0  0  0  0  0  0  0  0  0  0  0  0
  -13.7402   22.3952   -7.4284 C   0  0  0  0  0  0  0  0  0  0  0  0
  -18.4979   18.6989   -5.6271 N   0  0  0  0  0  0  0  0  0  0  0  0
  -18.1653   18.4939   -7.3058 S   0  0  0  0  0  0  0  0  0  0  0  0
  -16.8812   17.8329   -7.4005 O   0  0  0  0  0  0  0  0  0  0  0  0
  -18.3527   19.7793   -7.9305 O   0  0  0  0  0  0  0  0  0  0  0  0
  -19.3642   17.3125   -7.8599 C   0  0  0  0  0  0  0  0  0  0  0  0
  -20.6583   17.4408   -7.3190 C   0  0  0  0  0  0  0  0  0  0  0  0
  -21.6740   16.5541   -7.6777 C   0  0  0  0  0  0  0  0  0  0  0  0
  -21.4053   15.5215   -8.5696 C   0  0  0  0  0  0  0  0  0  0  0  0
  -20.1194   15.3775   -9.0949 C   0  0  0  0  0  0  0  0  0  0  0  0
  -19.0889   16.2620   -8.7386 C   0  0  0  0  0  0  0  0  0  0  0  0
  -17.5684   15.9781   -9.4989 Cl  0  0  0  0  0  0  0  0  0  0  0  0
  -19.7304   19.4786   -5.3256 C   0  0  0  0  0  0  0  0  0  0  0  0
  -20.4606   19.0058   -4.0887 C   0  0  0  0  0  0  0  0  0  0  0  0
  -21.8204   18.6542   -4.1228 C   0  0  0  0  0  0  0  0  0  0  0  0
  -22.4730   18.2229   -2.9667 C   0  0  0  0  0  0  0  0  0  0  0  0
  -21.7699   18.1162   -1.7698 C   0  0  0  0  0  0  0  0  0  0  0  0
  -20.4137   18.4306   -1.7284 C   0  0  0  0  0  0  0  0  0  0  0  0
  -19.7600   18.8683   -2.8808 C   0  0  0  0  0  0  0  0  0  0  0  0
  8  9  2  0
  9 10  2  0
  9 11  1  0
 11 12  2  0
 12 13  1  0
 13 14  2  0
 14 15  1  0
 15 16  2  0
 16 17  1  0
  9  7  1  0
  7 18  1  0
 18 19  1  0
 19 20  2  0
 20 21  1  0
 21 22  2  0
 22 23  1  0
 23 24  2  0
  1  7  1  0
  1  2  1  0
  2  3  1  0
  3  4  1  0
  4  5  1  0
  5 25  1  0
 25 36  1  0
 36 37  1  0
 37 38  2  0
 38 39  1  0
 39 40  2  0
 40 41  1  0
 41 42  2  0
 25 26  1  0
 26 27  2  0
 26 28  2  0
 26 29  1  0
 29 30  2  0
 30 31  1  0
 31 32  2  0
 32 33  1  0
 33 34  2  0
 34 35  1  0
 16 11  1  0
 24 19  1  0
  5  1  1  0
 42 37  1  0
 34 29  1  0
  3  6  1  0
M  END
> <minimizedAffinity>
-10.08290

> <CNNscore>
0.9120464325

> <CNNaffinity>
8.9090375900

> <CNN_VS>
8.1254558563

> <CNNaffinity_variance>
0.1352292001

$$$$



 42 46  0  0  0  0  0  0  0  0999 V2000
  -14.9560   20.8984   -4.5930 C   0  0  0  0  0  0  0  0  0  0  0  0
  -14.4866   20.4776   -3.1968 C   0  0  0  0  0  0  0  0  0  0  0  0
  -15.6435   20.6814   -2.3355 N   0  0  0  0  0  0  0  0  0  0  0  0
  -16.8253   20.3108   -3.1297 C   0  0  0  0  0  0  0  0  0  0  0  0
  -16.4741   20.6017   -4.6001 C   0  0  0  0  0  0  0  0  0  0  0  0
  -15.7028   21.6589   -2.0504 H   0  0  0  0  0  0  0  0  0  0  0  0
  -14.5983   22.3134   -4.9296 N   0  0  0  0  0  0  0  0  0  0  0  0
  -16.0201   23.2521   -3.0452 O   0  0  0  0  0  0  0  0  0  0  0  0
  -15.1416   23.6916   -4.0998 S   0  0  0  0  0  0  0  0  0  0  0  0
  -15.6276   24.6343   -5.0872 O   0  0  0  0  0  0  0  0  0  0  0  0
  -13.6823   24.4551   -3.4289 C   0  0  0  0  0  0  0  0  0  0  0  0
  -12.9354   25.2677   -4.3044 C   0  0  0  0  0  0  0  0  0  0  0  0
  -11.7864   25.9264   -3.8675 C   0  0  0  0  0  0  0  0  0  0  0  0
  -11.3741   25.7882   -2.5488 C   0  0  0  0  0  0  0  0  0  0  0  0
  -12.1283   25.0161   -1.6670 C   0  0  0  0  0  0  0  0  0  0  0  0
  -13.2968   24.3616   -2.0904 C   0  0  0  0  0  0  0  0  0  0  0  0
  -14.1556   23.5279   -0.8510 Cl  0  0  0  0  0  0  0  0  0  0  0  0
  -13.5546   22.4749   -5.9600 C   0  0  0  0  0  0  0  0  0  0  0  0
  -13.8656   21.8275   -7.2969 C   0  0  0  0  0  0  0  0  0  0  0  0
  -14.4009   22.5361   -8.3828 C   0  0  0  0  0  0  0  0  0  0  0  0
  -14.6627   21.8973   -9.5987 C   0  0  0  0  0  0  0  0  0  0  0  0
  -14.3742   20.5447   -9.7562 C   0  0  0  0  0  0  0  0  0  0  0  0
  -13.8331   19.8270   -8.6936 C   0  0  0  0  0  0  0  0  0  0  0  0
  -13.5829   20.4633   -7.4735 C   0  0  0  0  0  0  0  0  0  0  0  0
  -16.8494   19.4774   -5.5606 N   0  0  0  0  0  0  0  0  0  0  0  0
  -18.0344   19.9932   -6.7010 S   0  0  0  0  0  0  0  0  0  0  0  0
  -17.4644   21.1128   -7.4197 O   0  0  0  0  0  0  0  0  0  0  0  0
  -19.2677   20.1658   -5.9753 O   0  0  0  0  0  0  0  0  0  0  0  0
  -18.1398   18.6656   -7.8702 C   0  0  0  0  0  0  0  0  0  0  0  0
  -16.9488   17.9530   -8.1096 C   0  0  0  0  0  0  0  0  0  0  0  0
  -16.9183   16.8979   -9.0217 C   0  0  0  0  0  0  0  0  0  0  0  0
  -18.0731   16.5515   -9.7150 C   0  0  0  0  0  0  0  0  0  0  0  0
  -19.2525   17.2664   -9.4962 C   0  0  0  0  0  0  0  0  0  0  0  0
  -19.2940   18.3321   -8.5829 C   0  0  0  0  0  0  0  0  0  0  0  0
  -20.8298   19.0910   -8.3942 Cl  0  0  0  0  0  0  0  0  0  0  0  0
  -17.1299   18.1623   -4.9205 C   0  0  0  0  0  0  0  0  0  0  0  0
  -18.5535   18.0161   -4.4321 C   0  0  0  0  0  0  0  0  0  0  0  0
  -19.5369   17.3743   -5.2034 C   0  0  0  0  0  0  0  0  0  0  0  0
  -20.8451   17.2541   -4.7317 C   0  0  0  0  0  0  0  0  0  0  0  0
  -21.1802   17.7530   -3.4758 C   0  0  0  0  0  0  0  0  0  0  0  0
  -20.2080   18.3629   -2.6867 C   0  0  0  0  0  0  0  0  0  0  0  0
  -18.9009   18.4905   -3.1581 C   0  0  0  0  0  0  0  0  0  0  0  0
  8  9  2  0
  9 10  2  0
  9 11  1  0
 11 12  2  0
 12 13  1  0
 13 14  2  0
 14 15  1  0
 15 16  2  0
 16 17  1  0
  9  7  1  0
  7 18  1  0
 18 19  1  0
 19 20  2  0
 20 21  1  0
 21 22  2  0
 22 23  1  0
 23 24  2  0
  1  7  1  0
  1  2  1  0
  2  3  1  0
  3  4  1  0
  4  5  1  0
  5 25  1  0
 25 36  1  0
 36 37  1  0
 37 38  2  0
 38 39  1  0
 39 40  2  0
 40 41  1  0
 41 42  2  0
 25 26  1  0
 26 27  2  0
 26 28  2  0
 26 29  1  0
 29 30  2  0
 30 31  1  0
 31 32  2  0
 32 33  1  0
 33 34  2  0
 34 35  1  0
 16 11  1  0
 24 19  1  0
  5  1  1  0
 42 37  1  0
 34 29  1  0
  3  6  1  0
M  END
> <minimizedAffinity>
-8.99908

> <CNNscore>
0.5678505301

> <CNNaffinity>
7.5436844826

> <CNN_VS>
4.2836852074

> <CNNaffinity_variance>
1.2673553228

$$$$



 42 46  0  0  0  0  0  0  0  0999 V2000
  -15.2633   21.0509   -5.3841 C   0  0  0  0  0  0  0  0  0  0  0  0
  -14.1718   20.3225   -4.5936 C   0  0  0  0  0  0  0  0  0  0  0  0
  -14.6556   20.3006   -3.2199 N   0  0  0  0  0  0  0  0  0  0  0  0
  -16.1123   20.1074   -3.2937 C   0  0  0  0  0  0  0  0  0  0  0  0
  -16.5718   20.7400   -4.6199 C   0  0  0  0  0  0  0  0  0  0  0  0
  -14.4401   21.1832   -2.7562 H   0  0  0  0  0  0  0  0  0  0  0  0
  -14.9812   22.5108   -5.5638 N   0  0  0  0  0  0  0  0  0  0  0  0
  -16.2514   23.1780   -3.4674 O   0  0  0  0  0  0  0  0  0  0  0  0
  -15.3405   23.7302   -4.4381 S   0  0  0  0  0  0  0  0  0  0  0  0
  -15.7213   24.9144   -5.1815 O   0  0  0  0  0  0  0  0  0  0  0  0
  -13.7898   24.1553   -3.6785 C   0  0  0  0  0  0  0  0  0  0  0  0
  -13.8522   24.7226   -2.3904 C   0  0  0  0  0  0  0  0  0  0  0  0
  -12.6899   25.0711   -1.7027 C   0  0  0  0  0  0  0  0  0  0  0  0
  -11.4512   24.8496   -2.2897 C   0  0  0  0  0  0  0  0  0  0  0  0
  -11.3800   24.2545   -3.5480 C   0  0  0  0  0  0  0  0  0  0  0  0
  -12.5425   23.8833   -4.2435 C   0  0  0  0  0  0  0  0  0  0  0  0
  -12.2700   23.0772   -5.7417 Cl  0  0  0  0  0  0  0  0  0  0  0  0
  -14.1718   22.8585   -6.7476 C   0  0  0  0  0  0  0  0  0  0  0  0
  -14.5685   22.1481   -8.0286 C   0  0  0  0  0  0  0  0  0  0  0  0
  -15.6233   21.2258   -8.0957 C   0  0  0  0  0  0  0  0  0  0  0  0
  -15.9572   20.6026   -9.3020 C   0  0  0  0  0  0  0  0  0  0  0  0
  -15.2562   20.9067  -10.4655 C   0  0  0  0  0  0  0  0  0  0  0  0
  -14.2132   21.8270  -10.4213 C   0  0  0  0  0  0  0  0  0  0  0  0
  -13.8712   22.4409   -9.2119 C   0  0  0  0  0  0  0  0  0  0  0  0
  -17.5293   19.8659   -5.4240 N   0  0  0  0  0  0  0  0  0  0  0  0
  -19.1687   20.3383   -5.1795 S   0  0  0  0  0  0  0  0  0  0  0  0
  -19.8718   20.0658   -6.4149 O   0  0  0  0  0  0  0  0  0  0  0  0
  -19.1445   21.6805   -4.6546 O   0  0  0  0  0  0  0  0  0  0  0  0
  -19.7975   19.1803   -3.9946 C   0  0  0  0  0  0  0  0  0  0  0  0
  -19.2620   19.2691   -2.6950 C   0  0  0  0  0  0  0  0  0  0  0  0
  -19.6778   18.3959   -1.6895 C   0  0  0  0  0  0  0  0  0  0  0  0
  -20.6226   17.4158   -1.9739 C   0  0  0  0  0  0  0  0  0  0  0  0
  -21.1434   17.3104   -3.2653 C   0  0  0  0  0  0  0  0  0  0  0  0
  -20.7300   18.1816   -4.2857 C   0  0  0  0  0  0  0  0  0  0  0  0
  -21.4910   17.9512   -5.8148 Cl  0  0  0  0  0  0  0  0  0  0  0  0
  -17.2815   18.4003   -5.3311 C   0  0  0  0  0  0  0  0  0  0  0  0
  -17.5391   17.6579   -6.6229 C   0  0  0  0  0  0  0  0  0  0  0  0
  -16.6413   17.7193   -7.7019 C   0  0  0  0  0  0  0  0  0  0  0  0
  -16.9028   17.0268   -8.8854 C   0  0  0  0  0  0  0  0  0  0  0  0
  -18.0512   16.2476   -8.9961 C   0  0  0  0  0  0  0  0  0  0  0  0
  -18.9339   16.1517   -7.9230 C   0  0  0  0  0  0  0  0  0  0  0  0
  -18.6788   16.8479   -6.7410 C   0  0  0  0  0  0  0  0  0  0  0  0
  8  9  2  0
  9 10  2  0
  9 11  1  0
 11 12  2  0
 12 13  1  0
 13 14  2  0
 14 15  1  0
 15 16  2  0
 16 17  1  0
  9  7  1  0
  7 18  1  0
 18 19  1  0
 19 20  2  0
 20 21  1  0
 21 22  2  0
 22 23  1  0
 23 24  2  0
  1  7  1  0
  1  2  1  0
  2  3  1  0
  3  4  1  0
  4  5  1  0
  5 25  1  0
 25 36  1  0
 36 37  1  0
 37 38  2  0
 38 39  1  0
 39 40  2  0
 40 41  1  0
 41 42  2  0
 25 26  1  0
 26 27  2  0
 26 28  2  0
 26 29  1  0
 29 30  2  0
 30 31  1  0
 31 32  2  0
 32 33  1  0
 33 34  2  0
 34 35  1  0
 16 11  1  0
 24 19  1  0
  5  1  1  0
 42 37  1  0
 34 29  1  0
  3  6  1  0
M  END
> <minimizedAffinity>
-9.14991

> <CNNscore>
0.4733695388

> <CNNaffinity>
7.5258011818

> <CNN_VS>
3.5624849796

> <CNNaffinity_variance>
0.8121118546

$$$$



 42 46  0  0  0  0  0  0  0  0999 V2000
  -14.5480   21.8812   -5.4774 C   0  0  0  0  0  0  0  0  0  0  0  0
  -13.9970   20.7459   -4.6089 C   0  0  0  0  0  0  0  0  0  0  0  0
  -14.0833   19.5576   -5.4468 N   0  0  0  0  0  0  0  0  0  0  0  0
  -13.7682   19.9899   -6.8174 C   0  0  0  0  0  0  0  0  0  0  0  0
  -14.2174   21.4583   -6.9281 C   0  0  0  0  0  0  0  0  0  0  0  0
  -15.0245   19.1666   -5.4082 H   0  0  0  0  0  0  0  0  0  0  0  0
  -15.9983   22.1594   -5.2270 N   0  0  0  0  0  0  0  0  0  0  0  0
  -16.7177   21.4197   -7.5484 O   0  0  0  0  0  0  0  0  0  0  0  0
  -17.2773   21.7253   -6.2559 S   0  0  0  0  0  0  0  0  0  0  0  0
  -18.2969   22.7489   -6.1435 O   0  0  0  0  0  0  0  0  0  0  0  0
  -18.0105   20.2782   -5.5273 C   0  0  0  0  0  0  0  0  0  0  0  0
  -18.8978   20.4921   -4.4540 C   0  0  0  0  0  0  0  0  0  0  0  0
  -19.5393   19.4228   -3.8293 C   0  0  0  0  0  0  0  0  0  0  0  0
  -19.3088   18.1279   -4.2742 C   0  0  0  0  0  0  0  0  0  0  0  0
  -18.4614   17.9112   -5.3593 C   0  0  0  0  0  0  0  0  0  0  0  0
  -17.8227   18.9810   -6.0080 C   0  0  0  0  0  0  0  0  0  0  0  0
  -16.8855   18.5436   -7.3860 Cl  0  0  0  0  0  0  0  0  0  0  0  0
  -16.3181   22.7007   -3.8921 C   0  0  0  0  0  0  0  0  0  0  0  0
  -15.2639   23.6186   -3.3013 C   0  0  0  0  0  0  0  0  0  0  0  0
  -14.5567   23.3149   -2.1285 C   0  0  0  0  0  0  0  0  0  0  0  0
  -13.5875   24.1890   -1.6271 C   0  0  0  0  0  0  0  0  0  0  0  0
  -13.2939   25.3711   -2.3010 C   0  0  0  0  0  0  0  0  0  0  0  0
  -13.9775   25.6851   -3.4719 C   0  0  0  0  0  0  0  0  0  0  0  0
  -14.9558   24.8165   -3.9665 C   0  0  0  0  0  0  0  0  0  0  0  0
  -13.1893   22.3724   -7.5877 N   0  0  0  0  0  0  0  0  0  0  0  0
  -13.3063   22.3143   -9.3063 S   0  0  0  0  0  0  0  0  0  0  0  0
  -14.6641   22.6830   -9.6462 O   0  0  0  0  0  0  0  0  0  0  0  0
  -12.7915   21.0327   -9.7186 O   0  0  0  0  0  0  0  0  0  0  0  0
  -12.2831   23.6464   -9.8711 C   0  0  0  0  0  0  0  0  0  0  0  0
  -12.9394   24.8640  -10.1364 C   0  0  0  0  0  0  0  0  0  0  0  0
  -12.2296   25.9726  -10.5984 C   0  0  0  0  0  0  0  0  0  0  0  0
  -10.8591   25.8737  -10.8138 C   0  0  0  0  0  0  0  0  0  0  0  0
  -10.2058   24.6638  -10.5706 C   0  0  0  0  0  0  0  0  0  0  0  0
  -10.9105   23.5408  -10.1085 C   0  0  0  0  0  0  0  0  0  0  0  0
   -9.9597   22.1329   -9.8187 Cl  0  0  0  0  0  0  0  0  0  0  0  0
  -11.8041   22.2609   -7.0522 C   0  0  0  0  0  0  0  0  0  0  0  0
  -11.3489   23.4831   -6.2869 C   0  0  0  0  0  0  0  0  0  0  0  0
  -11.2581   23.4854   -4.8849 C   0  0  0  0  0  0  0  0  0  0  0  0
  -10.8375   24.6273   -4.2010 C   0  0  0  0  0  0  0  0  0  0  0  0
  -10.4813   25.7711   -4.9102 C   0  0  0  0  0  0  0  0  0  0  0  0
  -10.5355   25.7727   -6.3019 C   0  0  0  0  0  0  0  0  0  0  0  0
  -10.9618   24.6352   -6.9883 C   0  0  0  0  0  0  0  0  0  0  0  0
  8  9  2  0
  9 10  2  0
  9 11  1  0
 11 12  2  0
 12 13  1  0
 13 14  2  0
 14 15  1  0
 15 16  2  0
 16 17  1  0
  9  7  1  0
  7 18  1  0
 18 19  1  0
 19 20  2  0
 20 21  1  0
 21 22  2  0
 22 23  1  0
 23 24  2  0
  1  7  1  0
  1  2  1  0
  2  3  1  0
  3  4  1  0
  4  5  1  0
  5 25  1  0
 25 36  1  0
 36 37  1  0
 37 38  2  0
 38 39  1  0
 39 40  2  0
 40 41  1  0
 41 42  2  0
 25 26  1  0
 26 27  2  0
 26 28  2  0
 26 29  1  0
 29 30  2  0
 30 31  1  0
 31 32  2  0
 32 33  1  0
 33 34  2  0
 34 35  1  0
 16 11  1  0
 24 19  1  0
  5  1  1  0
 42 37  1  0
 34 29  1  0
  3  6  1  0
M  END
> <minimizedAffinity>
-9.40520

> <CNNscore>
0.4411613345

> <CNNaffinity>
7.6074061394

> <CNN_VS>
3.3560934067

> <CNNaffinity_variance>
0.9542474747

$$$$



 42 46  0  0  0  0  0  0  0  0999 V2000
  -14.8849   19.7046   -6.4569 C   0  0  0  0  0  0  0  0  0  0  0  0
  -14.1048   19.5422   -5.1485 C   0  0  0  0  0  0  0  0  0  0  0  0
  -14.9349   20.1804   -4.1359 N   0  0  0  0  0  0  0  0  0  0  0  0
  -16.3309   19.8830   -4.4927 C   0  0  0  0  0  0  0  0  0  0  0  0
  -16.3698   19.7350   -6.0246 C   0  0  0  0  0  0  0  0  0  0  0  0
  -14.7782   21.1883   -4.1357 H   0  0  0  0  0  0  0  0  0  0  0  0
  -14.4467   20.8927   -7.2567 N   0  0  0  0  0  0  0  0  0  0  0  0
  -14.2787   21.2157   -9.7709 O   0  0  0  0  0  0  0  0  0  0  0  0
  -13.4654   20.8413   -8.6415 S   0  0  0  0  0  0  0  0  0  0  0  0
  -12.7815   19.5638   -8.6467 O   0  0  0  0  0  0  0  0  0  0  0  0
  -12.1801   22.0386   -8.3645 C   0  0  0  0  0  0  0  0  0  0  0  0
  -11.0147   21.5767   -7.7216 C   0  0  0  0  0  0  0  0  0  0  0  0
   -9.9419   22.4339   -7.4776 C   0  0  0  0  0  0  0  0  0  0  0  0
  -10.0168   23.7607   -7.8802 C   0  0  0  0  0  0  0  0  0  0  0  0
  -11.1510   24.2160   -8.5501 C   0  0  0  0  0  0  0  0  0  0  0  0
  -12.2310   23.3583   -8.8170 C   0  0  0  0  0  0  0  0  0  0  0  0
  -13.5100   24.0597   -9.7339 Cl  0  0  0  0  0  0  0  0  0  0  0  0
  -15.0764   22.1741   -6.8843 C   0  0  0  0  0  0  0  0  0  0  0  0
  -14.4755   22.8563   -5.6691 C   0  0  0  0  0  0  0  0  0  0  0  0
  -13.1001   22.8540   -5.3936 C   0  0  0  0  0  0  0  0  0  0  0  0
  -12.5922   23.5044   -4.2649 C   0  0  0  0  0  0  0  0  0  0  0  0
  -13.4481   24.1859   -3.4043 C   0  0  0  0  0  0  0  0  0  0  0  0
  -14.8148   24.2084   -3.6664 C   0  0  0  0  0  0  0  0  0  0  0  0
  -15.3240   23.5471   -4.7887 C   0  0  0  0  0  0  0  0  0  0  0  0
  -17.1488   18.5160   -6.5094 N   0  0  0  0  0  0  0  0  0  0  0  0
  -18.2969   18.9442   -7.7216 S   0  0  0  0  0  0  0  0  0  0  0  0
  -17.5462   19.4661   -8.8436 O   0  0  0  0  0  0  0  0  0  0  0  0
  -19.2917   19.7697   -7.0841 O   0  0  0  0  0  0  0  0  0  0  0  0
  -18.9741   17.3990   -8.2640 C   0  0  0  0  0  0  0  0  0  0  0  0
  -18.0445   16.3826   -8.5576 C   0  0  0  0  0  0  0  0  0  0  0  0
  -18.4707   15.1319   -9.0054 C   0  0  0  0  0  0  0  0  0  0  0  0
  -19.8287   14.8868   -9.1782 C   0  0  0  0  0  0  0  0  0  0  0  0
  -20.7543   15.8967   -8.9070 C   0  0  0  0  0  0  0  0  0  0  0  0
  -20.3367   17.1600   -8.4588 C   0  0  0  0  0  0  0  0  0  0  0  0
  -21.5980   18.2876   -8.1305 Cl  0  0  0  0  0  0  0  0  0  0  0  0
  -17.6768   17.6309   -5.4344 C   0  0  0  0  0  0  0  0  0  0  0  0
  -19.0347   18.0483   -4.9165 C   0  0  0  0  0  0  0  0  0  0  0  0
  -20.1594   17.2150   -5.0370 C   0  0  0  0  0  0  0  0  0  0  0  0
  -21.4032   17.6241   -4.5531 C   0  0  0  0  0  0  0  0  0  0  0  0
  -21.5327   18.8592   -3.9236 C   0  0  0  0  0  0  0  0  0  0  0  0
  -20.4196   19.6818   -3.7683 C   0  0  0  0  0  0  0  0  0  0  0  0
  -19.1763   19.2787   -4.2568 C   0  0  0  0  0  0  0  0  0  0  0  0
  8  9  2  0
  9 10  2  0
  9 11  1  0
 11 12  2  0
 12 13  1  0
 13 14  2  0
 14 15  1  0
 15 16  2  0
 16 17  1  0
  9  7  1  0
  7 18  1  0
 18 19  1  0
 19 20  2  0
 20 21  1  0
 21 22  2  0
 22 23  1  0
 23 24  2  0
  1  7  1  0
  1  2  1  0
  2  3  1  0
  3  4  1  0
  4  5  1  0
  5 25  1  0
 25 36  1  0
 36 37  1  0
 37 38  2  0
 38 39  1  0
 39 40  2  0
 40 41  1  0
 41 42  2  0
 25 26  1  0
 26 27  2  0
 26 28  2  0
 26 29  1  0
 29 30  2  0
 30 31  1  0
 31 32  2  0
 32 33  1  0
 33 34  2  0
 34 35  1  0
 16 11  1  0
 24 19  1  0
  5  1  1  0
 42 37  1  0
 34 29  1  0
  3  6  1  0
M  END
> <minimizedAffinity>
-9.16762

> <CNNscore>
0.3693808019

> <CNNaffinity>
7.6099190712

> <CNN_VS>
2.8109579086

> <CNNaffinity_variance>
0.4328482151

$$$$



 42 46  0  0  0  0  0  0  0  0999 V2000
  -16.3756   21.1190   -4.9402 C   0  0  0  0  0  0  0  0  0  0  0  0
  -16.2187   21.3289   -3.4309 C   0  0  0  0  0  0  0  0  0  0  0  0
  -15.1288   20.4447   -3.0410 N   0  0  0  0  0  0  0  0  0  0  0  0
  -14.1560   20.4702   -4.1445 C   0  0  0  0  0  0  0  0  0  0  0  0
  -14.9587   20.7383   -5.4305 C   0  0  0  0  0  0  0  0  0  0  0  0
  -15.4774   19.4965   -2.9002 H   0  0  0  0  0  0  0  0  0  0  0  0
  -17.4403   20.1239   -5.2858 N   0  0  0  0  0  0  0  0  0  0  0  0
  -18.3895   21.5927   -7.1284 O   0  0  0  0  0  0  0  0  0  0  0  0
  -18.5985   20.3059   -6.5140 S   0  0  0  0  0  0  0  0  0  0  0  0
  -19.8932   19.9881   -5.9459 O   0  0  0  0  0  0  0  0  0  0  0  0
  -18.2812   18.9943   -7.6722 C   0  0  0  0  0  0  0  0  0  0  0  0
  -16.9965   18.4171   -7.6362 C   0  0  0  0  0  0  0  0  0  0  0  0
  -16.6568   17.3684   -8.4906 C   0  0  0  0  0  0  0  0  0  0  0  0
  -17.5985   16.8779   -9.3853 C   0  0  0  0  0  0  0  0  0  0  0  0
  -18.8830   17.4186   -9.4012 C   0  0  0  0  0  0  0  0  0  0  0  0
  -19.2427   18.4634   -8.5340 C   0  0  0  0  0  0  0  0  0  0  0  0
  -20.8937   18.9484   -8.6219 Cl  0  0  0  0  0  0  0  0  0  0  0  0
  -17.3369   18.8216   -4.5998 C   0  0  0  0  0  0  0  0  0  0  0  0
  -18.5683   18.4092   -3.8146 C   0  0  0  0  0  0  0  0  0  0  0  0
  -18.9313   19.0017   -2.5960 C   0  0  0  0  0  0  0  0  0  0  0  0
  -20.0810   18.5934   -1.9128 C   0  0  0  0  0  0  0  0  0  0  0  0
  -20.8983   17.6012   -2.4468 C   0  0  0  0  0  0  0  0  0  0  0  0
  -20.5604   17.0086   -3.6599 C   0  0  0  0  0  0  0  0  0  0  0  0
  -19.4036   17.4084   -4.3369 C   0  0  0  0  0  0  0  0  0  0  0  0
  -14.3432   21.8024   -6.3342 N   0  0  0  0  0  0  0  0  0  0  0  0
  -14.2873   21.2785   -7.9753 S   0  0  0  0  0  0  0  0  0  0  0  0
  -15.5845   21.5639   -8.5504 O   0  0  0  0  0  0  0  0  0  0  0  0
  -13.7941   19.9242   -7.9667 O   0  0  0  0  0  0  0  0  0  0  0  0
  -13.1504   22.3872   -8.7618 C   0  0  0  0  0  0  0  0  0  0  0  0
  -13.7128   23.5305   -9.3621 C   0  0  0  0  0  0  0  0  0  0  0  0
  -12.9082   24.4612  -10.0200 C   0  0  0  0  0  0  0  0  0  0  0  0
  -11.5353   24.2538  -10.0977 C   0  0  0  0  0  0  0  0  0  0  0  0
  -10.9739   23.1127   -9.5209 C   0  0  0  0  0  0  0  0  0  0  0  0
  -11.7742   22.1678   -8.8591 C   0  0  0  0  0  0  0  0  0  0  0  0
  -10.9316   20.8334   -8.1664 Cl  0  0  0  0  0  0  0  0  0  0  0  0
  -13.0812   22.4113   -5.8300 C   0  0  0  0  0  0  0  0  0  0  0  0
  -13.2955   23.4389   -4.7415 C   0  0  0  0  0  0  0  0  0  0  0  0
  -12.2895   23.7507   -3.8116 C   0  0  0  0  0  0  0  0  0  0  0  0
  -12.5125   24.7015   -2.8141 C   0  0  0  0  0  0  0  0  0  0  0  0
  -13.7334   25.3673   -2.7484 C   0  0  0  0  0  0  0  0  0  0  0  0
  -14.7282   25.0917   -3.6834 C   0  0  0  0  0  0  0  0  0  0  0  0
  -14.5109   24.1371   -4.6776 C   0  0  0  0  0  0  0  0  0  0  0  0
  8  9  2  0
  9 10  2  0
  9 11  1  0
 11 12  2  0
 12 13  1  0
 13 14  2  0
 14 15  1  0
 15 16  2  0
 16 17  1  0
  9  7  1  0
  7 18  1  0
 18 19  1  0
 19 20  2  0
 20 21  1  0
 21 22  2  0
 22 23  1  0
 23 24  2  0
  1  7  1  0
  1  2  1  0
  2  3  1  0
  3  4  1  0
  4  5  1  0
  5 25  1  0
 25 36  1  0
 36 37  1  0
 37 38  2  0
 38 39  1  0
 39 40  2  0
 40 41  1  0
 41 42  2  0
 25 26  1  0
 26 27  2  0
 26 28  2  0
 26 29  1  0
 29 30  2  0
 30 31  1  0
 31 32  2  0
 32 33  1  0
 33 34  2  0
 34 35  1  0
 16 11  1  0
 24 19  1  0
  5  1  1  0
 42 37  1  0
 34 29  1  0
  3  6  1  0
M  END
> <minimizedAffinity>
-10.29523

> <CNNscore>
0.3310104311

> <CNNaffinity>
7.3029265404

> <CNN_VS>
2.4173448086

> <CNNaffinity_variance>
1.0880166292

$$$$



 42 46  0  0  0  0  0  0  0  0999 V2000
  -15.1077   20.2222   -6.3236 C   0  0  0  0  0  0  0  0  0  0  0  0
  -14.2740   19.4822   -5.2728 C   0  0  0  0  0  0  0  0  0  0  0  0
  -14.5536   20.1707   -4.0200 N   0  0  0  0  0  0  0  0  0  0  0  0
  -15.9747   20.5496   -4.0604 C   0  0  0  0  0  0  0  0  0  0  0  0
  -16.3303   20.7603   -5.5435 C   0  0  0  0  0  0  0  0  0  0  0  0
  -13.9693   21.0026   -3.9370 H   0  0  0  0  0  0  0  0  0  0  0  0
  -14.3291   21.2703   -7.0574 N   0  0  0  0  0  0  0  0  0  0  0  0
  -14.0084   21.1243   -9.5732 O   0  0  0  0  0  0  0  0  0  0  0  0
  -13.2632   20.9839   -8.3477 S   0  0  0  0  0  0  0  0  0  0  0  0
  -12.5673   19.7426   -8.0738 O   0  0  0  0  0  0  0  0  0  0  0  0
  -12.0098   22.2392   -8.2236 C   0  0  0  0  0  0  0  0  0  0  0  0
  -10.8189   21.8793   -7.5624 C   0  0  0  0  0  0  0  0  0  0  0  0
   -9.7682   22.7872   -7.4315 C   0  0  0  0  0  0  0  0  0  0  0  0
   -9.8910   24.0626   -7.9665 C   0  0  0  0  0  0  0  0  0  0  0  0
  -11.0511   24.4139   -8.6544 C   0  0  0  0  0  0  0  0  0  0  0  0
  -12.1094   23.5031   -8.8080 C   0  0  0  0  0  0  0  0  0  0  0  0
  -13.4263   24.0696   -9.7637 Cl  0  0  0  0  0  0  0  0  0  0  0  0
  -14.6705   22.6655   -6.7196 C   0  0  0  0  0  0  0  0  0  0  0  0
  -14.0690   23.1788   -5.4243 C   0  0  0  0  0  0  0  0  0  0  0  0
  -12.7099   23.0408   -5.1055 C   0  0  0  0  0  0  0  0  0  0  0  0
  -12.1999   23.5383   -3.9024 C   0  0  0  0  0  0  0  0  0  0  0  0
  -13.0355   24.2008   -3.0077 C   0  0  0  0  0  0  0  0  0  0  0  0
  -14.3848   24.3569   -3.3109 C   0  0  0  0  0  0  0  0  0  0  0  0
  -14.8972   23.8481   -4.5087 C   0  0  0  0  0  0  0  0  0  0  0  0
  -17.6371   20.0969   -5.9673 N   0  0  0  0  0  0  0  0  0  0  0  0
  -18.9818   20.7509   -5.1100 S   0  0  0  0  0  0  0  0  0  0  0  0
  -20.0586   20.8942   -6.0665 O   0  0  0  0  0  0  0  0  0  0  0  0
  -18.5023   21.9089   -4.3982 O   0  0  0  0  0  0  0  0  0  0  0  0
  -19.4803   19.4591   -4.0041 C   0  0  0  0  0  0  0  0  0  0  0  0
  -18.9256   19.5011   -2.7101 C   0  0  0  0  0  0  0  0  0  0  0  0
  -19.2409   18.5242   -1.7654 C   0  0  0  0  0  0  0  0  0  0  0  0
  -20.1025   17.4872   -2.1063 C   0  0  0  0  0  0  0  0  0  0  0  0
  -20.6409   17.4295   -3.3935 C   0  0  0  0  0  0  0  0  0  0  0  0
  -20.3282   18.4053   -4.3532 C   0  0  0  0  0  0  0  0  0  0  0  0
  -21.1003   18.2191   -5.8828 Cl  0  0  0  0  0  0  0  0  0  0  0  0
  -17.6024   18.6095   -6.0330 C   0  0  0  0  0  0  0  0  0  0  0  0
  -17.8651   18.0565   -7.4157 C   0  0  0  0  0  0  0  0  0  0  0  0
  -18.9369   18.5115   -8.2018 C   0  0  0  0  0  0  0  0  0  0  0  0
  -19.1603   17.9835   -9.4746 C   0  0  0  0  0  0  0  0  0  0  0  0
  -18.3030   17.0125   -9.9850 C   0  0  0  0  0  0  0  0  0  0  0  0
  -17.2175   16.5752   -9.2297 C   0  0  0  0  0  0  0  0  0  0  0  0
  -16.9954   17.0963   -7.9545 C   0  0  0  0  0  0  0  0  0  0  0  0
  8  9  2  0
  9 10  2  0
  9 11  1  0
 11 12  2  0
 12 13  1  0
 13 14  2  0
 14 15  1  0
 15 16  2  0
 16 17  1  0
  9  7  1  0
  7 18  1  0
 18 19  1  0
 19 20  2  0
 20 21  1  0
 21 22  2  0
 22 23  1  0
 23 24  2  0
  1  7  1  0
  1  2  1  0
  2  3  1  0
  3  4  1  0
  4  5  1  0
  5 25  1  0
 25 36  1  0
 36 37  1  0
 37 38  2  0
 38 39  1  0
 39 40  2  0
 40 41  1  0
 41 42  2  0
 25 26  1  0
 26 27  2  0
 26 28  2  0
 26 29  1  0
 29 30  2  0
 30 31  1  0
 31 32  2  0
 32 33  1  0
 33 34  2  0
 34 35  1  0
 16 11  1  0
 24 19  1  0
  5  1  1  0
 42 37  1  0
 34 29  1  0
  3  6  1  0
M  END
> <minimizedAffinity>
-9.40765

> <CNNscore>
0.3221424520

> <CNNaffinity>
7.1817984581

> <CNN_VS>
2.3135621548

> <CNNaffinity_variance>
1.0077697039

$$$$



 42 46  0  0  0  0  0  0  0  0999 V2000
  -15.1986   20.0703   -5.8844 C   0  0  0  0  0  0  0  0  0  0  0  0
  -14.2157   19.5270   -4.8425 C   0  0  0  0  0  0  0  0  0  0  0  0
  -14.3841   20.3911   -3.6822 N   0  0  0  0  0  0  0  0  0  0  0  0
  -15.8173   20.7153   -3.6080 C   0  0  0  0  0  0  0  0  0  0  0  0
  -16.3492   20.6842   -5.0524 C   0  0  0  0  0  0  0  0  0  0  0  0
  -13.8354   21.2435   -3.7948 H   0  0  0  0  0  0  0  0  0  0  0  0
  -14.5606   21.0165   -6.8544 N   0  0  0  0  0  0  0  0  0  0  0  0
  -14.6183   20.7187   -9.3766 O   0  0  0  0  0  0  0  0  0  0  0  0
  -13.7196   20.5690   -8.2599 S   0  0  0  0  0  0  0  0  0  0  0  0
  -13.1006   19.2829   -8.0094 O   0  0  0  0  0  0  0  0  0  0  0  0
  -12.3583   21.7061   -8.3882 C   0  0  0  0  0  0  0  0  0  0  0  0
  -11.1064   21.2460   -7.9346 C   0  0  0  0  0  0  0  0  0  0  0  0
   -9.9733   22.0556   -8.0120 C   0  0  0  0  0  0  0  0  0  0  0  0
  -10.0753   23.3312   -8.5508 C   0  0  0  0  0  0  0  0  0  0  0  0
  -11.3025   23.7797   -9.0359 C   0  0  0  0  0  0  0  0  0  0  0  0
  -12.4472   22.9676   -8.9795 C   0  0  0  0  0  0  0  0  0  0  0  0
  -13.8563   23.6418   -9.7067 Cl  0  0  0  0  0  0  0  0  0  0  0  0
  -14.8534   22.4454   -6.6312 C   0  0  0  0  0  0  0  0  0  0  0  0
  -14.1050   23.0818   -5.4745 C   0  0  0  0  0  0  0  0  0  0  0  0
  -14.7411   23.8263   -4.4700 C   0  0  0  0  0  0  0  0  0  0  0  0
  -14.0094   24.3866   -3.4185 C   0  0  0  0  0  0  0  0  0  0  0  0
  -12.6329   24.1942   -3.3418 C   0  0  0  0  0  0  0  0  0  0  0  0
  -11.9852   23.4499   -4.3233 C   0  0  0  0  0  0  0  0  0  0  0  0
  -12.7155   22.9000   -5.3818 C   0  0  0  0  0  0  0  0  0  0  0  0
  -17.6620   19.9235   -5.2127 N   0  0  0  0  0  0  0  0  0  0  0  0
  -18.4468   20.3279   -6.6930 S   0  0  0  0  0  0  0  0  0  0  0  0
  -17.6729   21.3891   -7.3010 O   0  0  0  0  0  0  0  0  0  0  0  0
  -19.8375   20.5473   -6.3841 O   0  0  0  0  0  0  0  0  0  0  0  0
  -18.2191   18.9053   -7.7249 C   0  0  0  0  0  0  0  0  0  0  0  0
  -16.9266   18.3457   -7.7346 C   0  0  0  0  0  0  0  0  0  0  0  0
  -16.6358   17.2322   -8.5230 C   0  0  0  0  0  0  0  0  0  0  0  0
  -17.6284   16.6734   -9.3210 C   0  0  0  0  0  0  0  0  0  0  0  0
  -18.9069   17.2351   -9.3302 C   0  0  0  0  0  0  0  0  0  0  0  0
  -19.2100   18.3576   -8.5432 C   0  0  0  0  0  0  0  0  0  0  0  0
  -20.8397   18.9112   -8.6327 Cl  0  0  0  0  0  0  0  0  0  0  0  0
  -18.5478   19.9259   -4.0156 C   0  0  0  0  0  0  0  0  0  0  0  0
  -19.2927   18.6263   -3.8089 C   0  0  0  0  0  0  0  0  0  0  0  0
  -19.7755   18.2444   -2.5460 C   0  0  0  0  0  0  0  0  0  0  0  0
  -20.4583   17.0382   -2.3802 C   0  0  0  0  0  0  0  0  0  0  0  0
  -20.6861   16.2115   -3.4770 C   0  0  0  0  0  0  0  0  0  0  0  0
  -20.2415   16.5926   -4.7407 C   0  0  0  0  0  0  0  0  0  0  0  0
  -19.5530   17.7946   -4.9086 C   0  0  0  0  0  0  0  0  0  0  0  0
  8  9  2  0
  9 10  2  0
  9 11  1  0
 11 12  2  0
 12 13  1  0
 13 14  2  0
 14 15  1  0
 15 16  2  0
 16 17  1  0
  9  7  1  0
  7 18  1  0
 18 19  1  0
 19 20  2  0
 20 21  1  0
 21 22  2  0
 22 23  1  0
 23 24  2  0
  1  7  1  0
  1  2  1  0
  2  3  1  0
  3  4  1  0
  4  5  1  0
  5 25  1  0
 25 36  1  0
 36 37  1  0
 37 38  2  0
 38 39  1  0
 39 40  2  0
 40 41  1  0
 41 42  2  0
 25 26  1  0
 26 27  2  0
 26 28  2  0
 26 29  1  0
 29 30  2  0
 30 31  1  0
 31 32  2  0
 32 33  1  0
 33 34  2  0
 34 35  1  0
 16 11  1  0
 24 19  1  0
  5  1  1  0
 42 37  1  0
 34 29  1  0
  3  6  1  0
M  END
> <minimizedAffinity>
-9.97630

> <CNNscore>
0.3197020292

> <CNNaffinity>
7.2732806206

> <CNN_VS>
2.3252825737

> <CNNaffinity_variance>
0.9499573708

$$$$
