


 28 30  0  0  0  0  0  0  0  0999 V2000
   29.0621   66.5143    8.3363 C   0  0  0  0  0  0  0  0  0  0  0  0
   27.9949   66.4678    9.4609 C   0  0  0  0  0  0  0  0  0  0  0  0
   26.8350   65.4984    9.1715 C   0  0  0  0  0  0  0  0  0  0  0  0
   25.8989   65.4267   10.3802 C   0  0  0  0  0  0  0  0  0  0  0  0
   26.6372   65.4170   11.7195 C   0  0  0  0  0  0  0  0  0  0  0  0
   28.1586   65.1884   11.5959 C   0  0  0  0  0  0  0  0  0  0  0  0
   28.7232   66.2517   10.7447 N   0  0  0  0  0  0  0  0  0  0  0  0
   30.1356   66.0386   10.3846 C   0  0  0  0  0  0  0  0  0  0  0  0
   30.3231   66.8927    9.1288 C   0  0  0  0  0  0  0  0  0  0  0  0
   29.3573   65.2925    6.3172 C   0  0  0  0  0  0  0  0  0  0  0  0
   29.2012   65.2180    7.7272 O   0  0  0  0  0  0  0  0  0  0  0  0
   26.1077   65.9763    8.0289 O   0  0  0  0  0  0  0  0  0  0  0  0
   25.0787   65.0836    7.6214 C   0  0  0  0  0  0  0  0  0  0  0  0
   31.5226   66.6421    8.4004 O   0  0  0  0  0  0  0  0  0  0  0  0
   32.6716   66.5470    9.2287 C   0  0  0  0  0  0  0  0  0  0  0  0
   28.7737   65.2302   13.0139 C   0  0  0  0  0  0  0  0  0  0  0  0
   28.2690   66.3817   13.8674 C   0  0  0  0  0  0  0  0  0  0  0  0
   27.2146   66.3238   14.4976 O   0  0  0  0  0  0  0  0  0  0  0  0
   29.0628   67.6478   13.9085 C   0  0  0  0  0  0  0  0  0  0  0  0
   28.8926   68.6744   12.9780 C   0  0  0  0  0  0  0  0  0  0  0  0
   29.6586   69.8463   13.0651 C   0  0  0  0  0  0  0  0  0  0  0  0
   30.6093   70.0291   14.0830 C   0  0  0  0  0  0  0  0  0  0  0  0
   30.7596   68.9866   15.0160 C   0  0  0  0  0  0  0  0  0  0  0  0
   30.0002   67.8147   14.9315 C   0  0  0  0  0  0  0  0  0  0  0  0
   31.4583   71.3065   14.2101 C   0  0  0  0  0  0  0  0  0  0  0  0
   30.9640   72.4748   13.3277 C   0  0  0  0  0  0  0  0  0  0  0  0
   31.4364   71.7972   15.6735 C   0  0  0  0  0  0  0  0  0  0  0  0
   32.9165   71.0102   13.7970 C   0  0  0  0  0  0  0  0  0  0  0  0
 10 11  1  0
  1 11  1  0
  1  2  1  0
  2  3  1  0
  3 12  1  0
 12 13  1  0
  3  4  1  0
  4  5  1  0
  5  6  1  0
  6 16  1  0
 16 17  1  0
 17 18  2  0
 17 19  1  0
 19 20  2  0
 20 21  1  0
 21 22  2  0
 22 25  1  0
 25 26  1  0
 25 27  1  0
 25 28  1  0
 22 23  1  0
 23 24  2  0
  6  7  1  0
  7  8  1  0
  8  9  1  0
  9 14  1  0
 14 15  1  0
  9  1  1  0
  2  7  1  0
 24 19  1  0
M  END
> <minimizedAffinity>
-6.47977

> <CNNscore>
0.2231707126

> <CNNaffinity>
5.3178391457

> <CNN_VS>
1.1867859364

> <CNNaffinity_variance>
0.5198190808

$$$$



 28 30  0  0  0  0  0  0  0  0999 V2000
   28.9935   65.3463    9.0958 C   0  0  0  0  0  0  0  0  0  0  0  0
   27.8377   66.3753    9.2017 C   0  0  0  0  0  0  0  0  0  0  0  0
   26.4828   65.7458    9.5719 C   0  0  0  0  0  0  0  0  0  0  0  0
   25.4339   66.8421    9.7725 C   0  0  0  0  0  0  0  0  0  0  0  0
   25.9738   68.0717   10.5043 C   0  0  0  0  0  0  0  0  0  0  0  0
   27.3604   67.8602   11.1483 C   0  0  0  0  0  0  0  0  0  0  0  0
   28.3129   67.4749   10.0907 N   0  0  0  0  0  0  0  0  0  0  0  0
   29.6285   67.0514   10.6003 C   0  0  0  0  0  0  0  0  0  0  0  0
   30.2085   66.2148    9.4578 C   0  0  0  0  0  0  0  0  0  0  0  0
   28.6188   64.7755   11.3740 C   0  0  0  0  0  0  0  0  0  0  0  0
   28.8081   64.2881   10.0532 O   0  0  0  0  0  0  0  0  0  0  0  0
   26.0706   64.8766    8.5054 O   0  0  0  0  0  0  0  0  0  0  0  0
   24.9244   64.1043    8.8396 C   0  0  0  0  0  0  0  0  0  0  0  0
   31.3542   65.4380    9.7980 O   0  0  0  0  0  0  0  0  0  0  0  0
   32.5697   66.1667    9.7161 C   0  0  0  0  0  0  0  0  0  0  0  0
   27.7900   69.1830   11.8241 C   0  0  0  0  0  0  0  0  0  0  0  0
   26.7615   69.7370   12.7961 C   0  0  0  0  0  0  0  0  0  0  0  0
   26.3262   69.0817   13.7412 O   0  0  0  0  0  0  0  0  0  0  0  0
   26.2277   71.1148   12.5697 C   0  0  0  0  0  0  0  0  0  0  0  0
   24.9905   71.3544   11.9690 C   0  0  0  0  0  0  0  0  0  0  0  0
   24.5320   72.6673   11.7858 C   0  0  0  0  0  0  0  0  0  0  0  0
   25.2900   73.7751   12.2004 C   0  0  0  0  0  0  0  0  0  0  0  0
   26.5299   73.5124   12.8116 C   0  0  0  0  0  0  0  0  0  0  0  0
   26.9927   72.2048   12.9936 C   0  0  0  0  0  0  0  0  0  0  0  0
   24.8103   75.2265   12.0213 C   0  0  0  0  0  0  0  0  0  0  0  0
   25.6369   76.2600   12.8190 C   0  0  0  0  0  0  0  0  0  0  0  0
   24.9010   75.6198   10.5314 C   0  0  0  0  0  0  0  0  0  0  0  0
   23.3449   75.3562   12.4911 C   0  0  0  0  0  0  0  0  0  0  0  0
 10 11  1  0
  1 11  1  0
  1  2  1  0
  2  3  1  0
  3 12  1  0
 12 13  1  0
  3  4  1  0
  4  5  1  0
  5  6  1  0
  6 16  1  0
 16 17  1  0
 17 18  2  0
 17 19  1  0
 19 20  2  0
 20 21  1  0
 21 22  2  0
 22 25  1  0
 25 26  1  0
 25 27  1  0
 25 28  1  0
 22 23  1  0
 23 24  2  0
  6  7  1  0
  7  8  1  0
  8  9  1  0
  9 14  1  0
 14 15  1  0
  9  1  1  0
  2  7  1  0
 24 19  1  0
M  END
> <minimizedAffinity>
-5.63554

> <CNNscore>
0.2228080928

> <CNNaffinity>
5.0026988983

> <CNN_VS>
1.1146417856

> <CNNaffinity_variance>
0.1715482473

$$$$



 28 30  0  0  0  0  0  0  0  0999 V2000
   29.7230   66.8978   10.7629 C   0  0  0  0  0  0  0  0  0  0  0  0
   29.4590   66.9274    9.2348 C   0  0  0  0  0  0  0  0  0  0  0  0
   30.2604   65.8739    8.4494 C   0  0  0  0  0  0  0  0  0  0  0  0
   29.8484   65.8949    6.9755 C   0  0  0  0  0  0  0  0  0  0  0  0
   28.3441   66.0767    6.7686 C   0  0  0  0  0  0  0  0  0  0  0  0
   27.5091   65.9122    8.0561 C   0  0  0  0  0  0  0  0  0  0  0  0
   27.9794   66.8976    9.0471 N   0  0  0  0  0  0  0  0  0  0  0  0
   27.3989   66.7158   10.3887 C   0  0  0  0  0  0  0  0  0  0  0  0
   28.3894   67.4279   11.3126 C   0  0  0  0  0  0  0  0  0  0  0  0
   28.7726   64.8760   11.5787 C   0  0  0  0  0  0  0  0  0  0  0  0
   29.9653   65.5487   11.2009 O   0  0  0  0  0  0  0  0  0  0  0  0
   31.6592   66.1800    8.5611 O   0  0  0  0  0  0  0  0  0  0  0  0
   32.1077   67.0723    7.5489 C   0  0  0  0  0  0  0  0  0  0  0  0
   28.2236   67.1558   12.7020 O   0  0  0  0  0  0  0  0  0  0  0  0
   28.9208   68.0667   13.5384 C   0  0  0  0  0  0  0  0  0  0  0  0
   26.0217   66.1479    7.7050 C   0  0  0  0  0  0  0  0  0  0  0  0
   25.1009   65.0246    8.1516 C   0  0  0  0  0  0  0  0  0  0  0  0
   24.6283   64.2061    7.3649 O   0  0  0  0  0  0  0  0  0  0  0  0
   24.7215   64.9370    9.5948 C   0  0  0  0  0  0  0  0  0  0  0  0
   25.0261   63.8295   10.3882 C   0  0  0  0  0  0  0  0  0  0  0  0
   24.6534   63.8000   11.7402 C   0  0  0  0  0  0  0  0  0  0  0  0
   23.9733   64.8736   12.3387 C   0  0  0  0  0  0  0  0  0  0  0  0
   23.6835   65.9841   11.5247 C   0  0  0  0  0  0  0  0  0  0  0  0
   24.0503   66.0168   10.1750 C   0  0  0  0  0  0  0  0  0  0  0  0
   23.5591   64.8746   13.8210 C   0  0  0  0  0  0  0  0  0  0  0  0
   24.7391   65.0730   14.7987 C   0  0  0  0  0  0  0  0  0  0  0  0
   22.5561   66.0200   14.0758 C   0  0  0  0  0  0  0  0  0  0  0  0
   22.8926   63.5286   14.1801 C   0  0  0  0  0  0  0  0  0  0  0  0
 10 11  1  0
  1 11  1  0
  1  2  1  0
  2  3  1  0
  3 12  1  0
 12 13  1  0
  3  4  1  0
  4  5  1  0
  5  6  1  0
  6 16  1  0
 16 17  1  0
 17 18  2  0
 17 19  1  0
 19 20  2  0
 20 21  1  0
 21 22  2  0
 22 25  1  0
 25 26  1  0
 25 27  1  0
 25 28  1  0
 22 23  1  0
 23 24  2  0
  6  7  1  0
  7  8  1  0
  8  9  1  0
  9 14  1  0
 14 15  1  0
  9  1  1  0
  2  7  1  0
 24 19  1  0
M  END
> <minimizedAffinity>
-7.26325

> <CNNscore>
0.2208467871

> <CNNaffinity>
5.7804112434

> <CNN_VS>
1.2765852213

> <CNNaffinity_variance>
0.7042849064

$$$$



 28 30  0  0  0  0  0  0  0  0999 V2000
   29.0353   65.2270    9.1970 C   0  0  0  0  0  0  0  0  0  0  0  0
   27.8233   66.1946    9.2241 C   0  0  0  0  0  0  0  0  0  0  0  0
   26.5253   65.5440    9.7350 C   0  0  0  0  0  0  0  0  0  0  0  0
   25.4195   66.5966    9.8422 C   0  0  0  0  0  0  0  0  0  0  0  0
   25.9108   67.9396   10.3843 C   0  0  0  0  0  0  0  0  0  0  0  0
   27.3320   67.8922   10.9845 C   0  0  0  0  0  0  0  0  0  0  0  0
   28.2643   67.4259    9.9416 N   0  0  0  0  0  0  0  0  0  0  0  0
   29.6224   67.1471   10.4391 C   0  0  0  0  0  0  0  0  0  0  0  0
   30.2076   66.2021    9.3873 C   0  0  0  0  0  0  0  0  0  0  0  0
   28.7286   64.9355   11.5374 C   0  0  0  0  0  0  0  0  0  0  0  0
   28.9531   64.2944   10.2898 O   0  0  0  0  0  0  0  0  0  0  0  0
   26.1260   64.5211    8.8092 O   0  0  0  0  0  0  0  0  0  0  0  0
   25.0453   64.9254    7.9782 C   0  0  0  0  0  0  0  0  0  0  0  0
   31.4115   65.5419    9.7703 O   0  0  0  0  0  0  0  0  0  0  0  0
   32.5751   66.3234    9.5454 C   0  0  0  0  0  0  0  0  0  0  0  0
   27.7053   69.3140   11.4643 C   0  0  0  0  0  0  0  0  0  0  0  0
   28.1118   69.3803   12.9271 C   0  0  0  0  0  0  0  0  0  0  0  0
   27.3556   69.0479   13.8381 O   0  0  0  0  0  0  0  0  0  0  0  0
   29.4662   69.9095   13.2735 C   0  0  0  0  0  0  0  0  0  0  0  0
   29.8354   71.2376   13.0530 C   0  0  0  0  0  0  0  0  0  0  0  0
   31.1177   71.6860   13.4027 C   0  0  0  0  0  0  0  0  0  0  0  0
   32.0634   70.8261   13.9857 C   0  0  0  0  0  0  0  0  0  0  0  0
   31.6690   69.4938   14.2079 C   0  0  0  0  0  0  0  0  0  0  0  0
   30.3923   69.0413   13.8579 C   0  0  0  0  0  0  0  0  0  0  0  0
   33.4744   71.2904   14.3883 C   0  0  0  0  0  0  0  0  0  0  0  0
   34.6071   70.3973   13.8340 C   0  0  0  0  0  0  0  0  0  0  0  0
   33.7181   72.7197   13.8589 C   0  0  0  0  0  0  0  0  0  0  0  0
   33.6073   71.2906   15.9268 C   0  0  0  0  0  0  0  0  0  0  0  0
 10 11  1  0
  1 11  1  0
  1  2  1  0
  2  3  1  0
  3 12  1  0
 12 13  1  0
  3  4  1  0
  4  5  1  0
  5  6  1  0
  6 16  1  0
 16 17  1  0
 17 18  2  0
 17 19  1  0
 19 20  2  0
 20 21  1  0
 21 22  2  0
 22 25  1  0
 25 26  1  0
 25 27  1  0
 25 28  1  0
 22 23  1  0
 23 24  2  0
  6  7  1  0
  7  8  1  0
  8  9  1  0
  9 14  1  0
 14 15  1  0
  9  1  1  0
  2  7  1  0
 24 19  1  0
M  END
> <minimizedAffinity>
-7.18701

> <CNNscore>
0.2139281034

> <CNNaffinity>
5.2310447693

> <CNN_VS>
1.1190674305

> <CNNaffinity_variance>
0.2737149000

$$$$



 28 30  0  0  0  0  0  0  0  0999 V2000
   31.1408   68.5318   17.3064 C   0  0  0  0  0  0  0  0  0  0  0  0
   32.3756   69.4511   17.1168 C   0  0  0  0  0  0  0  0  0  0  0  0
   33.6733   68.8713   17.7074 C   0  0  0  0  0  0  0  0  0  0  0  0
   34.8552   69.7831   17.3694 C   0  0  0  0  0  0  0  0  0  0  0  0
   34.8014   70.3440   15.9477 C   0  0  0  0  0  0  0  0  0  0  0  0
   33.7482   69.6669   15.0452 C   0  0  0  0  0  0  0  0  0  0  0  0
   32.4236   69.8250   15.6735 N   0  0  0  0  0  0  0  0  0  0  0  0
   31.3562   69.0534   15.0138 C   0  0  0  0  0  0  0  0  0  0  0  0
   30.2808   68.9236   16.0947 C   0  0  0  0  0  0  0  0  0  0  0  0
   31.0021   66.3789   18.3074 C   0  0  0  0  0  0  0  0  0  0  0  0
   31.5337   67.1491   17.2388 O   0  0  0  0  0  0  0  0  0  0  0  0
   33.5309   68.7792   19.1336 O   0  0  0  0  0  0  0  0  0  0  0  0
   34.7115   68.3114   19.7734 C   0  0  0  0  0  0  0  0  0  0  0  0
   29.2579   67.9700   15.8187 O   0  0  0  0  0  0  0  0  0  0  0  0
   28.5800   68.2135   14.5954 C   0  0  0  0  0  0  0  0  0  0  0  0
   33.7866   70.3476   13.6573 C   0  0  0  0  0  0  0  0  0  0  0  0
   33.0041   71.6486   13.5908 C   0  0  0  0  0  0  0  0  0  0  0  0
   31.8823   71.7195   13.0921 O   0  0  0  0  0  0  0  0  0  0  0  0
   33.6395   72.8970   14.1125 C   0  0  0  0  0  0  0  0  0  0  0  0
   35.0128   73.1344   14.0313 C   0  0  0  0  0  0  0  0  0  0  0  0
   35.5584   74.3264   14.5303 C   0  0  0  0  0  0  0  0  0  0  0  0
   34.7514   75.3149   15.1177 C   0  0  0  0  0  0  0  0  0  0  0  0
   33.3690   75.0607   15.1821 C   0  0  0  0  0  0  0  0  0  0  0  0
   32.8206   73.8720   14.6886 C   0  0  0  0  0  0  0  0  0  0  0  0
   35.3191   76.6362   15.6660 C   0  0  0  0  0  0  0  0  0  0  0  0
   35.4341   77.7540   14.6053 C   0  0  0  0  0  0  0  0  0  0  0  0
   34.4027   77.1645   16.7902 C   0  0  0  0  0  0  0  0  0  0  0  0
   36.7355   76.4022   16.2352 C   0  0  0  0  0  0  0  0  0  0  0  0
 10 11  1  0
  1 11  1  0
  1  2  1  0
  2  3  1  0
  3 12  1  0
 12 13  1  0
  3  4  1  0
  4  5  1  0
  5  6  1  0
  6 16  1  0
 16 17  1  0
 17 18  2  0
 17 19  1  0
 19 20  2  0
 20 21  1  0
 21 22  2  0
 22 25  1  0
 25 26  1  0
 25 27  1  0
 25 28  1  0
 22 23  1  0
 23 24  2  0
  6  7  1  0
  7  8  1  0
  8  9  1  0
  9 14  1  0
 14 15  1  0
  9  1  1  0
  2  7  1  0
 24 19  1  0
M  END
> <minimizedAffinity>
-5.82894

> <CNNscore>
0.2133584023

> <CNNaffinity>
3.9344158173

> <CNN_VS>
0.8394406438

> <CNNaffinity_variance>
1.5135344267

$$$$



 28 30  0  0  0  0  0  0  0  0999 V2000
   33.2148   70.2014   19.5531 C   0  0  0  0  0  0  0  0  0  0  0  0
   34.0174   70.7230   18.3326 C   0  0  0  0  0  0  0  0  0  0  0  0
   35.5287   70.4461   18.4236 C   0  0  0  0  0  0  0  0  0  0  0  0
   36.2196   70.8835   17.1300 C   0  0  0  0  0  0  0  0  0  0  0  0
   35.4175   70.5503   15.8712 C   0  0  0  0  0  0  0  0  0  0  0  0
   34.2304   69.5953   16.1179 C   0  0  0  0  0  0  0  0  0  0  0  0
   33.3315   70.2137   17.1097 N   0  0  0  0  0  0  0  0  0  0  0  0
   32.2608   69.3190   17.5819 C   0  0  0  0  0  0  0  0  0  0  0  0
   31.8409   69.9300   18.9206 C   0  0  0  0  0  0  0  0  0  0  0  0
   34.0233   69.0295   21.4583 C   0  0  0  0  0  0  0  0  0  0  0  0
   33.8037   68.9883   20.0555 O   0  0  0  0  0  0  0  0  0  0  0  0
   36.0681   71.1865   19.5298 O   0  0  0  0  0  0  0  0  0  0  0  0
   36.1475   72.5821   19.2687 C   0  0  0  0  0  0  0  0  0  0  0  0
   31.0189   69.0970   19.7344 O   0  0  0  0  0  0  0  0  0  0  0  0
   29.9368   68.5128   19.0251 C   0  0  0  0  0  0  0  0  0  0  0  0
   33.4996   69.3701   14.7740 C   0  0  0  0  0  0  0  0  0  0  0  0
   33.8484   70.3946   13.7072 C   0  0  0  0  0  0  0  0  0  0  0  0
   34.7804   70.2375   12.9205 O   0  0  0  0  0  0  0  0  0  0  0  0
   33.0556   71.6601   13.6395 C   0  0  0  0  0  0  0  0  0  0  0  0
   31.7314   71.6971   13.1989 C   0  0  0  0  0  0  0  0  0  0  0  0
   31.0290   72.9107   13.1610 C   0  0  0  0  0  0  0  0  0  0  0  0
   31.6240   74.1173   13.5655 C   0  0  0  0  0  0  0  0  0  0  0  0
   32.9562   74.0576   14.0145 C   0  0  0  0  0  0  0  0  0  0  0  0
   33.6618   72.8501   14.0512 C   0  0  0  0  0  0  0  0  0  0  0  0
   30.8768   75.4627   13.5437 C   0  0  0  0  0  0  0  0  0  0  0  0
   29.5252   75.4381   14.2922 C   0  0  0  0  0  0  0  0  0  0  0  0
   31.7491   76.5482   14.2097 C   0  0  0  0  0  0  0  0  0  0  0  0
   30.5814   75.8748   12.0851 C   0  0  0  0  0  0  0  0  0  0  0  0
 10 11  1  0
  1 11  1  0
  1  2  1  0
  2  3  1  0
  3 12  1  0
 12 13  1  0
  3  4  1  0
  4  5  1  0
  5  6  1  0
  6 16  1  0
 16 17  1  0
 17 18  2  0
 17 19  1  0
 19 20  2  0
 20 21  1  0
 21 22  2  0
 22 25  1  0
 25 26  1  0
 25 27  1  0
 25 28  1  0
 22 23  1  0
 23 24  2  0
  6  7  1  0
  7  8  1  0
  8  9  1  0
  9 14  1  0
 14 15  1  0
  9  1  1  0
  2  7  1  0
 24 19  1  0
M  END
> <minimizedAffinity>
-6.36219

> <CNNscore>
0.1876157671

> <CNNaffinity>
4.0494709015

> <CNN_VS>
0.7597445846

> <CNNaffinity_variance>
1.2007354498

$$$$



 28 30  0  0  0  0  0  0  0  0999 V2000
   29.4761   68.3288   15.4862 C   0  0  0  0  0  0  0  0  0  0  0  0
   30.7730   68.9409   16.0770 C   0  0  0  0  0  0  0  0  0  0  0  0
   31.4988   68.0119   17.0666 C   0  0  0  0  0  0  0  0  0  0  0  0
   32.8224   68.6443   17.5033 C   0  0  0  0  0  0  0  0  0  0  0  0
   33.5670   69.3409   16.3636 C   0  0  0  0  0  0  0  0  0  0  0  0
   33.0023   69.0286   14.9615 C   0  0  0  0  0  0  0  0  0  0  0  0
   31.5853   69.4348   14.9275 N   0  0  0  0  0  0  0  0  0  0  0  0
   30.8737   69.0103   13.7095 C   0  0  0  0  0  0  0  0  0  0  0  0
   29.4005   69.0337   14.1228 C   0  0  0  0  0  0  0  0  0  0  0  0
   28.4794   66.1876   15.7662 C   0  0  0  0  0  0  0  0  0  0  0  0
   29.6236   66.9062   15.3275 O   0  0  0  0  0  0  0  0  0  0  0  0
   30.6594   67.8144   18.2152 O   0  0  0  0  0  0  0  0  0  0  0  0
   31.3792   67.8870   19.4393 C   0  0  0  0  0  0  0  0  0  0  0  0
   28.5087   68.3844   13.2200 O   0  0  0  0  0  0  0  0  0  0  0  0
   28.1219   69.2044   12.1276 C   0  0  0  0  0  0  0  0  0  0  0  0
   33.8283   69.8157   13.9178 C   0  0  0  0  0  0  0  0  0  0  0  0
   33.5712   71.3133   13.9354 C   0  0  0  0  0  0  0  0  0  0  0  0
   32.5929   71.8217   13.3906 O   0  0  0  0  0  0  0  0  0  0  0  0
   34.5670   72.2058   14.6035 C   0  0  0  0  0  0  0  0  0  0  0  0
   34.6533   73.5730   14.3347 C   0  0  0  0  0  0  0  0  0  0  0  0
   35.6017   74.3683   14.9946 C   0  0  0  0  0  0  0  0  0  0  0  0
   36.4848   73.8251   15.9426 C   0  0  0  0  0  0  0  0  0  0  0  0
   36.3760   72.4471   16.2059 C   0  0  0  0  0  0  0  0  0  0  0  0
   35.4337   71.6493   15.5480 C   0  0  0  0  0  0  0  0  0  0  0  0
   37.5298   74.6730   16.6892 C   0  0  0  0  0  0  0  0  0  0  0  0
   37.3278   76.1965   16.5282 C   0  0  0  0  0  0  0  0  0  0  0  0
   37.4650   74.3598   18.1993 C   0  0  0  0  0  0  0  0  0  0  0  0
   38.9443   74.3440   16.1640 C   0  0  0  0  0  0  0  0  0  0  0  0
 10 11  1  0
  1 11  1  0
  1  2  1  0
  2  3  1  0
  3 12  1  0
 12 13  1  0
  3  4  1  0
  4  5  1  0
  5  6  1  0
  6 16  1  0
 16 17  1  0
 17 18  2  0
 17 19  1  0
 19 20  2  0
 20 21  1  0
 21 22  2  0
 22 25  1  0
 25 26  1  0
 25 27  1  0
 25 28  1  0
 22 23  1  0
 23 24  2  0
  6  7  1  0
  7  8  1  0
  8  9  1  0
  9 14  1  0
 14 15  1  0
  9  1  1  0
  2  7  1  0
 24 19  1  0
M  END
> <minimizedAffinity>
-5.82260

> <CNNscore>
0.1763167381

> <CNNaffinity>
4.0694813728

> <CNN_VS>
0.7175176740

> <CNNaffinity_variance>
1.4816302061

$$$$



 28 30  0  0  0  0  0  0  0  0999 V2000
   28.7646   66.3451    8.5923 C   0  0  0  0  0  0  0  0  0  0  0  0
   27.6452   65.9625    9.5955 C   0  0  0  0  0  0  0  0  0  0  0  0
   26.6524   64.9228    9.0456 C   0  0  0  0  0  0  0  0  0  0  0  0
   25.6608   64.5170   10.1385 C   0  0  0  0  0  0  0  0  0  0  0  0
   26.3069   64.3590   11.5156 C   0  0  0  0  0  0  0  0  0  0  0  0
   27.8500   64.3500   11.4876 C   0  0  0  0  0  0  0  0  0  0  0  0
   28.3137   65.6119   10.8822 N   0  0  0  0  0  0  0  0  0  0  0  0
   29.7620   65.6469   10.6152 C   0  0  0  0  0  0  0  0  0  0  0  0
   29.9078   66.7302    9.5442 C   0  0  0  0  0  0  0  0  0  0  0  0
   29.2738   65.5399    6.4131 C   0  0  0  0  0  0  0  0  0  0  0  0
   29.1213   65.2079    7.7859 O   0  0  0  0  0  0  0  0  0  0  0  0
   25.9394   65.5035    7.9423 O   0  0  0  0  0  0  0  0  0  0  0  0
   24.7171   64.8318    7.6650 C   0  0  0  0  0  0  0  0  0  0  0  0
   31.1741   66.7682    8.8909 O   0  0  0  0  0  0  0  0  0  0  0  0
   32.2385   66.2973    9.7038 C   0  0  0  0  0  0  0  0  0  0  0  0
   28.3623   64.2125   12.9401 C   0  0  0  0  0  0  0  0  0  0  0  0
   28.0742   65.4254   13.8091 C   0  0  0  0  0  0  0  0  0  0  0  0
   28.7999   66.4181   13.8186 O   0  0  0  0  0  0  0  0  0  0  0  0
   26.8877   65.3931   14.7178 C   0  0  0  0  0  0  0  0  0  0  0  0
   26.9877   65.0922   16.0773 C   0  0  0  0  0  0  0  0  0  0  0  0
   25.8435   65.0820   16.8887 C   0  0  0  0  0  0  0  0  0  0  0  0
   24.5717   65.3763   16.3697 C   0  0  0  0  0  0  0  0  0  0  0  0
   24.4932   65.6857   14.9993 C   0  0  0  0  0  0  0  0  0  0  0  0
   25.6311   65.6940   14.1854 C   0  0  0  0  0  0  0  0  0  0  0  0
   23.2996   65.3819   17.2360 C   0  0  0  0  0  0  0  0  0  0  0  0
   23.3969   66.2906   18.4820 C   0  0  0  0  0  0  0  0  0  0  0  0
   22.1055   65.8834   16.3960 C   0  0  0  0  0  0  0  0  0  0  0  0
   23.0008   63.9524   17.7380 C   0  0  0  0  0  0  0  0  0  0  0  0
 10 11  1  0
  1 11  1  0
  1  2  1  0
  2  3  1  0
  3 12  1  0
 12 13  1  0
  3  4  1  0
  4  5  1  0
  5  6  1  0
  6 16  1  0
 16 17  1  0
 17 18  2  0
 17 19  1  0
 19 20  2  0
 20 21  1  0
 21 22  2  0
 22 25  1  0
 25 26  1  0
 25 27  1  0
 25 28  1  0
 22 23  1  0
 23 24  2  0
  6  7  1  0
  7  8  1  0
  8  9  1  0
  9 14  1  0
 14 15  1  0
  9  1  1  0
  2  7  1  0
 24 19  1  0
M  END
> <minimizedAffinity>
-6.54573

> <CNNscore>
0.1733997315

> <CNNaffinity>
4.6119694710

> <CNN_VS>
0.7997142673

> <CNNaffinity_variance>
0.9693568349

$$$$



 28 30  0  0  0  0  0  0  0  0999 V2000
   29.9226   68.4390   18.2606 C   0  0  0  0  0  0  0  0  0  0  0  0
   31.3771   68.9339   18.4732 C   0  0  0  0  0  0  0  0  0  0  0  0
   32.2215   68.0046   19.3633 C   0  0  0  0  0  0  0  0  0  0  0  0
   33.6671   68.5042   19.4184 C   0  0  0  0  0  0  0  0  0  0  0  0
   34.1846   69.0137   18.0725 C   0  0  0  0  0  0  0  0  0  0  0  0
   33.2743   68.6629   16.8765 C   0  0  0  0  0  0  0  0  0  0  0  0
   31.9374   69.2339   17.1236 N   0  0  0  0  0  0  0  0  0  0  0  0
   30.9179   68.8043   16.1510 C   0  0  0  0  0  0  0  0  0  0  0  0
   29.5952   69.0385   16.8841 C   0  0  0  0  0  0  0  0  0  0  0  0
   30.5018   66.4709   17.0574 C   0  0  0  0  0  0  0  0  0  0  0  0
   29.8859   67.0009   18.2225 O   0  0  0  0  0  0  0  0  0  0  0  0
   31.6642   68.0010   20.6870 O   0  0  0  0  0  0  0  0  0  0  0  0
   32.5288   68.5943   21.6474 C   0  0  0  0  0  0  0  0  0  0  0  0
   28.4541   68.4331   16.2812 O   0  0  0  0  0  0  0  0  0  0  0  0
   28.4946   68.4505   14.8623 C   0  0  0  0  0  0  0  0  0  0  0  0
   33.9022   69.2596   15.5956 C   0  0  0  0  0  0  0  0  0  0  0  0
   33.6174   70.7402   15.4057 C   0  0  0  0  0  0  0  0  0  0  0  0
   32.5756   71.1524   14.8988 O   0  0  0  0  0  0  0  0  0  0  0  0
   34.6610   71.7307   15.8112 C   0  0  0  0  0  0  0  0  0  0  0  0
   35.4114   71.5985   16.9809 C   0  0  0  0  0  0  0  0  0  0  0  0
   36.3843   72.5529   17.3125 C   0  0  0  0  0  0  0  0  0  0  0  0
   36.6394   73.6602   16.4863 C   0  0  0  0  0  0  0  0  0  0  0  0
   35.8788   73.7707   15.3077 C   0  0  0  0  0  0  0  0  0  0  0  0
   34.9052   72.8230   14.9744 C   0  0  0  0  0  0  0  0  0  0  0  0
   37.7058   74.7190   16.8185 C   0  0  0  0  0  0  0  0  0  0  0  0
   39.0555   74.4919   16.1013 C   0  0  0  0  0  0  0  0  0  0  0  0
   37.1949   76.1145   16.4010 C   0  0  0  0  0  0  0  0  0  0  0  0
   37.9914   74.7174   18.3361 C   0  0  0  0  0  0  0  0  0  0  0  0
 10 11  1  0
  1 11  1  0
  1  2  1  0
  2  3  1  0
  3 12  1  0
 12 13  1  0
  3  4  1  0
  4  5  1  0
  5  6  1  0
  6 16  1  0
 16 17  1  0
 17 18  2  0
 17 19  1  0
 19 20  2  0
 20 21  1  0
 21 22  2  0
 22 25  1  0
 25 26  1  0
 25 27  1  0
 25 28  1  0
 22 23  1  0
 23 24  2  0
  6  7  1  0
  7  8  1  0
  8  9  1  0
  9 14  1  0
 14 15  1  0
  9  1  1  0
  2  7  1  0
 24 19  1  0
M  END
> <minimizedAffinity>
-5.45940

> <CNNscore>
0.1732026488

> <CNNaffinity>
4.1391334534

> <CNN_VS>
0.7169088721

> <CNNaffinity_variance>
1.1475297213

$$$$
