


 46 51  0  0  0  0  0  0  0  0999 V2000
   12.4637   20.1045  -39.5617 C   0  0  0  0  0  0  0  0  0  0  0  0
    9.8134   17.6273  -39.6175 C   0  0  0  0  0  0  0  0  0  0  0  0
   10.3741   17.3998  -40.8559 C   0  0  0  0  0  0  0  0  0  0  0  0
   11.4043   18.2941  -40.9609 N   0  0  0  0  0  0  0  0  0  0  0  0
   11.4477   19.0224  -39.7981 C   0  0  0  0  0  0  0  0  0  0  0  0
   10.4920   18.6392  -38.9721 N   0  0  0  0  0  0  0  0  0  0  0  0
   12.0069   18.3970  -41.7326 H   0  0  0  0  0  0  0  0  0  0  0  0
    4.6374   14.7898  -36.4506 N   0  0  0  0  0  0  0  0  0  0  0  0
    5.4544   14.7051  -37.5104 C   0  0  0  0  0  0  0  0  0  0  0  0
    5.3561   13.7428  -38.4222 N   0  0  0  0  0  0  0  0  0  0  0  0
    6.3414   14.0248  -39.2893 N   0  0  0  0  0  0  0  0  0  0  0  0
    7.0657   15.1440  -38.9772 C   0  0  0  0  0  0  0  0  0  0  0  0
    8.1501   15.7626  -39.6157 C   0  0  0  0  0  0  0  0  0  0  0  0
    8.6833   16.9224  -39.0255 C   0  0  0  0  0  0  0  0  0  0  0  0
    8.1191   17.4168  -37.8385 C   0  0  0  0  0  0  0  0  0  0  0  0
    7.0340   16.7813  -37.2148 C   0  0  0  0  0  0  0  0  0  0  0  0
    6.5001   15.6210  -37.8014 C   0  0  0  0  0  0  0  0  0  0  0  0
    3.9338   14.1144  -36.3162 H   0  0  0  0  0  0  0  0  0  0  0  0
    4.7411   15.5274  -35.8068 H   0  0  0  0  0  0  0  0  0  0  0  0
    6.5276   13.4730  -40.0830 H   0  0  0  0  0  0  0  0  0  0  0  0
   13.7637   19.4550  -39.5836 N   0  0  0  0  0  0  0  0  0  0  0  0
   14.1446   18.5792  -38.6065 C   0  0  0  0  0  0  0  0  0  0  0  0
   13.4492   18.2966  -37.6393 O   0  0  0  0  0  0  0  0  0  0  0  0
   14.3856   19.6511  -40.3212 H   0  0  0  0  0  0  0  0  0  0  0  0
   15.4978   18.0150  -38.8267 C   0  0  0  0  0  0  0  0  0  0  0  0
   16.4391   18.7672  -39.4168 C   0  0  0  0  0  0  0  0  0  0  0  0
   17.7995   18.2765  -39.6836 C   0  0  0  0  0  0  0  0  0  0  0  0
   18.7473   18.5004  -38.6638 C   0  0  0  0  0  0  0  0  0  0  0  0
   20.0510   18.0257  -38.7779 C   0  0  0  0  0  0  0  0  0  0  0  0
   21.1836   18.3165  -37.5184 Cl  0  0  0  0  0  0  0  0  0  0  0  0
   20.4370   17.3105  -39.9027 C   0  0  0  0  0  0  0  0  0  0  0  0
   19.5141   17.0696  -40.9240 C   0  0  0  0  0  0  0  0  0  0  0  0
   18.1893   17.5494  -40.8340 C   0  0  0  0  0  0  0  0  0  0  0  0
   17.3020   17.2974  -41.9210 N   0  0  0  0  0  0  0  0  0  0  0  0
   16.1443   16.5520  -41.9366 C   0  0  0  0  0  0  0  0  0  0  0  0
   15.6425   16.5351  -43.1494 N   0  0  0  0  0  0  0  0  0  0  0  0
   16.4940   17.2852  -43.9085 N   0  0  0  0  0  0  0  0  0  0  0  0
   17.4953   17.7530  -43.1781 N   0  0  0  0  0  0  0  0  0  0  0  0
   12.3658   21.2115  -40.6308 C   0  0  0  0  0  0  0  0  0  0  0  0
   13.6015   21.2981  -41.5015 C   0  0  0  0  0  0  0  0  0  0  0  0
   13.8264   20.3373  -42.5000 C   0  0  0  0  0  0  0  0  0  0  0  0
   14.9765   20.3973  -43.2870 C   0  0  0  0  0  0  0  0  0  0  0  0
   15.8980   21.4163  -43.0773 C   0  0  0  0  0  0  0  0  0  0  0  0
   17.0034   21.4718  -43.8318 F   0  0  0  0  0  0  0  0  0  0  0  0
   15.6920   22.3773  -42.0944 C   0  0  0  0  0  0  0  0  0  0  0  0
   14.5429   22.3199  -41.3050 C   0  0  0  0  0  0  0  0  0  0  0  0
  8  9  1  0
  9 10  2  0
 10 11  1  0
 11 12  1  0
 12 13  2  0
 13 14  1  0
 14  2  1  0
  2  3  2  0
  3  4  1  0
  4  5  1  0
  5  1  1  0
  1 39  1  0
 39 40  1  0
 40 41  2  0
 41 42  1  0
 42 43  2  0
 43 44  1  0
 43 45  1  0
 45 46  2  0
  1 21  1  0
 21 22  1  0
 22 23  2  0
 22 25  1  0
 25 26  2  0
 26 27  1  0
 27 28  2  0
 28 29  1  0
 29 30  1  0
 29 31  2  0
 31 32  1  0
 32 33  2  0
 33 34  1  0
 34 35  1  0
 35 36  2  0
 36 37  1  0
 37 38  2  0
  5  6  2  0
 14 15  2  0
 15 16  1  0
 16 17  2  0
 17  9  1  0
 17 12  1  0
  6  2  1  0
 46 40  1  0
 33 27  1  0
 38 34  1  0
  8 18  1  0
  8 19  1  0
 11 20  1  0
  4  7  1  0
 21 24  1  0
M  END
> <minimizedAffinity>
-10.87322

> <CNNscore>
0.9531510472

> <CNNaffinity>
8.7822990417

> <CNN_VS>
8.3708572388

> <CNNaffinity_variance>
0.0526194163

$$$$



 46 51  0  0  0  0  0  0  0  0999 V2000
   11.4008   18.8941  -40.7021 C   0  0  0  0  0  0  0  0  0  0  0  0
   14.9802   18.3445  -40.9267 C   0  0  0  0  0  0  0  0  0  0  0  0
   14.6377   18.2095  -42.2550 C   0  0  0  0  0  0  0  0  0  0  0  0
   13.2827   18.3938  -42.3039 N   0  0  0  0  0  0  0  0  0  0  0  0
   12.8467   18.6419  -41.0261 C   0  0  0  0  0  0  0  0  0  0  0  0
   13.8557   18.6130  -40.1754 N   0  0  0  0  0  0  0  0  0  0  0  0
   12.7208   18.3553  -43.1114 H   0  0  0  0  0  0  0  0  0  0  0  0
   20.9496   18.2953  -37.8878 N   0  0  0  0  0  0  0  0  0  0  0  0
   20.2319   17.7932  -38.9031 C   0  0  0  0  0  0  0  0  0  0  0  0
   20.7224   16.9082  -39.7652 N   0  0  0  0  0  0  0  0  0  0  0  0
   19.6975   16.6767  -40.6006 N   0  0  0  0  0  0  0  0  0  0  0  0
   18.5562   17.3714  -40.3011 C   0  0  0  0  0  0  0  0  0  0  0  0
   17.2953   17.4045  -40.9136 C   0  0  0  0  0  0  0  0  0  0  0  0
   16.3162   18.2437  -40.3527 C   0  0  0  0  0  0  0  0  0  0  0  0
   16.6269   19.0049  -39.2143 C   0  0  0  0  0  0  0  0  0  0  0  0
   17.8963   18.9578  -38.6172 C   0  0  0  0  0  0  0  0  0  0  0  0
   18.8775   18.1213  -39.1767 C   0  0  0  0  0  0  0  0  0  0  0  0
   21.8862   18.0185  -37.7628 H   0  0  0  0  0  0  0  0  0  0  0  0
   20.5401   18.9406  -37.2673 H   0  0  0  0  0  0  0  0  0  0  0  0
   19.7611   16.0591  -41.3647 H   0  0  0  0  0  0  0  0  0  0  0  0
   11.0325   20.1128  -41.4032 N   0  0  0  0  0  0  0  0  0  0  0  0
   11.5143   21.3333  -41.0219 C   0  0  0  0  0  0  0  0  0  0  0  0
   12.2573   21.5007  -40.0633 O   0  0  0  0  0  0  0  0  0  0  0  0
   10.4204   20.0576  -42.1722 H   0  0  0  0  0  0  0  0  0  0  0  0
   11.0318   22.4425  -41.8792 C   0  0  0  0  0  0  0  0  0  0  0  0
   11.3066   22.4300  -43.1923 C   0  0  0  0  0  0  0  0  0  0  0  0
   10.8768   23.4988  -44.1063 C   0  0  0  0  0  0  0  0  0  0  0  0
   11.9076   24.2686  -44.6837 C   0  0  0  0  0  0  0  0  0  0  0  0
   11.6248   25.2671  -45.6117 C   0  0  0  0  0  0  0  0  0  0  0  0
   12.9032   26.1895  -46.2963 Cl  0  0  0  0  0  0  0  0  0  0  0  0
   10.3136   25.5146  -45.9923 C   0  0  0  0  0  0  0  0  0  0  0  0
    9.2750   24.7606  -45.4394 C   0  0  0  0  0  0  0  0  0  0  0  0
    9.5373   23.7493  -44.4898 C   0  0  0  0  0  0  0  0  0  0  0  0
    8.4338   23.0338  -43.9394 N   0  0  0  0  0  0  0  0  0  0  0  0
    7.8303   21.8861  -44.4027 C   0  0  0  0  0  0  0  0  0  0  0  0
    6.8177   21.5725  -43.6287 N   0  0  0  0  0  0  0  0  0  0  0  0
    6.7855   22.5341  -42.6601 N   0  0  0  0  0  0  0  0  0  0  0  0
    7.7571   23.4175  -42.8349 N   0  0  0  0  0  0  0  0  0  0  0  0
   10.5136   17.7065  -41.1267 C   0  0  0  0  0  0  0  0  0  0  0  0
    9.6300   17.2030  -40.0051 C   0  0  0  0  0  0  0  0  0  0  0  0
    9.2888   18.0548  -38.9427 C   0  0  0  0  0  0  0  0  0  0  0  0
    8.4972   17.5878  -37.8935 C   0  0  0  0  0  0  0  0  0  0  0  0
    8.0463   16.2732  -37.9078 C   0  0  0  0  0  0  0  0  0  0  0  0
    7.2881   15.8248  -36.8986 F   0  0  0  0  0  0  0  0  0  0  0  0
    8.3727   15.4153  -38.9516 C   0  0  0  0  0  0  0  0  0  0  0  0
    9.1649   15.8791  -40.0023 C   0  0  0  0  0  0  0  0  0  0  0  0
  8  9  1  0
  9 10  2  0
 10 11  1  0
 11 12  1  0
 12 13  2  0
 13 14  1  0
 14  2  1  0
  2  3  2  0
  3  4  1  0
  4  5  1  0
  5  1  1  0
  1 39  1  0
 39 40  1  0
 40 41  2  0
 41 42  1  0
 42 43  2  0
 43 44  1  0
 43 45  1  0
 45 46  2  0
  1 21  1  0
 21 22  1  0
 22 23  2  0
 22 25  1  0
 25 26  2  0
 26 27  1  0
 27 28  2  0
 28 29  1  0
 29 30  1  0
 29 31  2  0
 31 32  1  0
 32 33  2  0
 33 34  1  0
 34 35  1  0
 35 36  2  0
 36 37  1  0
 37 38  2  0
  5  6  2  0
 14 15  2  0
 15 16  1  0
 16 17  2  0
 17  9  1  0
 17 12  1  0
  6  2  1  0
 46 40  1  0
 33 27  1  0
 38 34  1  0
  8 18  1  0
  8 19  1  0
 11 20  1  0
  4  7  1  0
 21 24  1  0
M  END
> <minimizedAffinity>
-9.10208

> <CNNscore>
0.4377658665

> <CNNaffinity>
7.1534657478

> <CNN_VS>
3.1315431595

> <CNNaffinity_variance>
0.5197241902

$$$$



 46 51  0  0  0  0  0  0  0  0999 V2000
   11.3962   18.8300  -40.2097 C   0  0  0  0  0  0  0  0  0  0  0  0
   14.9719   18.3486  -40.5922 C   0  0  0  0  0  0  0  0  0  0  0  0
   14.5781   18.2424  -41.9088 C   0  0  0  0  0  0  0  0  0  0  0  0
   13.2195   18.4044  -41.8985 N   0  0  0  0  0  0  0  0  0  0  0  0
   12.8316   18.6114  -40.5981 C   0  0  0  0  0  0  0  0  0  0  0  0
   13.8746   18.5778  -39.7896 N   0  0  0  0  0  0  0  0  0  0  0  0
   12.6261   18.3774  -42.6836 H   0  0  0  0  0  0  0  0  0  0  0  0
   21.0579   18.3189  -37.7937 N   0  0  0  0  0  0  0  0  0  0  0  0
   20.3102   17.8377  -38.7975 C   0  0  0  0  0  0  0  0  0  0  0  0
   20.7832   16.9940  -39.7094 N   0  0  0  0  0  0  0  0  0  0  0  0
   19.7305   16.7704  -40.5117 N   0  0  0  0  0  0  0  0  0  0  0  0
   18.5886   17.4298  -40.1428 C   0  0  0  0  0  0  0  0  0  0  0  0
   17.3038   17.4578  -40.7038 C   0  0  0  0  0  0  0  0  0  0  0  0
   16.3315   18.2559  -40.0751 C   0  0  0  0  0  0  0  0  0  0  0  0
   16.6724   18.9831  -38.9232 C   0  0  0  0  0  0  0  0  0  0  0  0
   17.9654   18.9420  -38.3785 C   0  0  0  0  0  0  0  0  0  0  0  0
   18.9398   18.1465  -39.0057 C   0  0  0  0  0  0  0  0  0  0  0  0
   22.0040   18.0578  -37.7157 H   0  0  0  0  0  0  0  0  0  0  0  0
   20.6609   18.9332  -37.1349 H   0  0  0  0  0  0  0  0  0  0  0  0
   19.7756   16.1815  -41.2993 H   0  0  0  0  0  0  0  0  0  0  0  0
   11.0289   20.1382  -40.7256 N   0  0  0  0  0  0  0  0  0  0  0  0
   10.8935   21.2212  -39.9036 C   0  0  0  0  0  0  0  0  0  0  0  0
   11.0400   21.1744  -38.6890 O   0  0  0  0  0  0  0  0  0  0  0  0
   10.8738   20.2468  -41.6917 H   0  0  0  0  0  0  0  0  0  0  0  0
   10.5332   22.4618  -40.6311 C   0  0  0  0  0  0  0  0  0  0  0  0
   11.1528   22.7548  -41.7844 C   0  0  0  0  0  0  0  0  0  0  0  0
   10.8629   23.9716  -42.5577 C   0  0  0  0  0  0  0  0  0  0  0  0
   11.0271   25.1926  -41.8715 C   0  0  0  0  0  0  0  0  0  0  0  0
   10.8417   26.4110  -42.5190 C   0  0  0  0  0  0  0  0  0  0  0  0
   11.0475   27.8822  -41.6547 Cl  0  0  0  0  0  0  0  0  0  0  0  0
   10.4991   26.4416  -43.8633 C   0  0  0  0  0  0  0  0  0  0  0  0
   10.3373   25.2450  -44.5669 C   0  0  0  0  0  0  0  0  0  0  0  0
   10.5111   23.9978  -43.9287 C   0  0  0  0  0  0  0  0  0  0  0  0
   10.3035   22.8114  -44.6916 N   0  0  0  0  0  0  0  0  0  0  0  0
   10.1767   22.6722  -46.0557 C   0  0  0  0  0  0  0  0  0  0  0  0
    9.9546   21.4137  -46.3555 N   0  0  0  0  0  0  0  0  0  0  0  0
    9.9464   20.7491  -45.1630 N   0  0  0  0  0  0  0  0  0  0  0  0
   10.1597   21.5804  -44.1539 N   0  0  0  0  0  0  0  0  0  0  0  0
   10.4852   17.7221  -40.7759 C   0  0  0  0  0  0  0  0  0  0  0  0
    9.5282   17.1642  -39.7437 C   0  0  0  0  0  0  0  0  0  0  0  0
    9.0156   15.8654  -39.8900 C   0  0  0  0  0  0  0  0  0  0  0  0
    8.1130   15.3566  -38.9562 C   0  0  0  0  0  0  0  0  0  0  0  0
    7.7256   16.1436  -37.8782 C   0  0  0  0  0  0  0  0  0  0  0  0
    6.8568   15.6552  -36.9832 F   0  0  0  0  0  0  0  0  0  0  0  0
    8.2231   17.4313  -37.7159 C   0  0  0  0  0  0  0  0  0  0  0  0
    9.1258   17.9435  -38.6485 C   0  0  0  0  0  0  0  0  0  0  0  0
  8  9  1  0
  9 10  2  0
 10 11  1  0
 11 12  1  0
 12 13  2  0
 13 14  1  0
 14  2  1  0
  2  3  2  0
  3  4  1  0
  4  5  1  0
  5  1  1  0
  1 39  1  0
 39 40  1  0
 40 41  2  0
 41 42  1  0
 42 43  2  0
 43 44  1  0
 43 45  1  0
 45 46  2  0
  1 21  1  0
 21 22  1  0
 22 23  2  0
 22 25  1  0
 25 26  2  0
 26 27  1  0
 27 28  2  0
 28 29  1  0
 29 30  1  0
 29 31  2  0
 31 32  1  0
 32 33  2  0
 33 34  1  0
 34 35  1  0
 35 36  2  0
 36 37  1  0
 37 38  2  0
  5  6  2  0
 14 15  2  0
 15 16  1  0
 16 17  2  0
 17  9  1  0
 17 12  1  0
  6  2  1  0
 46 40  1  0
 33 27  1  0
 38 34  1  0
  8 18  1  0
  8 19  1  0
 11 20  1  0
  4  7  1  0
 21 24  1  0
M  END
> <minimizedAffinity>
-10.36365

> <CNNscore>
0.4056406915

> <CNNaffinity>
7.3346009254

> <CNN_VS>
2.9752125740

> <CNNaffinity_variance>
0.6232323647

$$$$



 46 51  0  0  0  0  0  0  0  0999 V2000
   11.5085   19.0585  -41.1269 C   0  0  0  0  0  0  0  0  0  0  0  0
   15.0795   18.4166  -41.1398 C   0  0  0  0  0  0  0  0  0  0  0  0
   14.7998   18.2170  -42.4746 C   0  0  0  0  0  0  0  0  0  0  0  0
   13.4541   18.4289  -42.6021 N   0  0  0  0  0  0  0  0  0  0  0  0
   12.9618   18.7563  -41.3632 C   0  0  0  0  0  0  0  0  0  0  0  0
   13.9264   18.7511  -40.4620 N   0  0  0  0  0  0  0  0  0  0  0  0
   12.9320   18.3591  -43.4338 H   0  0  0  0  0  0  0  0  0  0  0  0
   20.8549   18.3272  -37.7473 N   0  0  0  0  0  0  0  0  0  0  0  0
   20.2223   17.8930  -38.8470 C   0  0  0  0  0  0  0  0  0  0  0  0
   20.8032   17.1126  -39.7528 N   0  0  0  0  0  0  0  0  0  0  0  0
   19.8412   16.9183  -40.6687 N   0  0  0  0  0  0  0  0  0  0  0  0
   18.6534   17.5353  -40.3802 C   0  0  0  0  0  0  0  0  0  0  0  0
   17.4307   17.5741  -41.0656 C   0  0  0  0  0  0  0  0  0  0  0  0
   16.3825   18.3171  -40.4941 C   0  0  0  0  0  0  0  0  0  0  0  0
   16.5899   18.9812  -39.2743 C   0  0  0  0  0  0  0  0  0  0  0  0
   17.8226   18.9304  -38.6050 C   0  0  0  0  0  0  0  0  0  0  0  0
   18.8728   18.1899  -39.1748 C   0  0  0  0  0  0  0  0  0  0  0  0
   21.7941   18.0783  -37.5890 H   0  0  0  0  0  0  0  0  0  0  0  0
   20.3800   18.8950  -37.0981 H   0  0  0  0  0  0  0  0  0  0  0  0
   19.9783   16.3775  -41.4798 H   0  0  0  0  0  0  0  0  0  0  0  0
   11.1464   20.0919  -42.0826 N   0  0  0  0  0  0  0  0  0  0  0  0
   10.6948   19.7844  -43.3350 C   0  0  0  0  0  0  0  0  0  0  0  0
   10.5864   18.6397  -43.7556 O   0  0  0  0  0  0  0  0  0  0  0  0
   11.2285   21.0374  -41.8209 H   0  0  0  0  0  0  0  0  0  0  0  0
   10.3632   20.9819  -44.1437 C   0  0  0  0  0  0  0  0  0  0  0  0
   10.7956   22.1880  -43.7460 C   0  0  0  0  0  0  0  0  0  0  0  0
   10.4973   23.4245  -44.4840 C   0  0  0  0  0  0  0  0  0  0  0  0
    9.3134   23.4156  -45.2500 C   0  0  0  0  0  0  0  0  0  0  0  0
    8.8962   24.5499  -45.9410 C   0  0  0  0  0  0  0  0  0  0  0  0
    7.4493   24.5068  -46.8674 Cl  0  0  0  0  0  0  0  0  0  0  0  0
    9.6413   25.7188  -45.8774 C   0  0  0  0  0  0  0  0  0  0  0  0
   10.8149   25.7548  -45.1195 C   0  0  0  0  0  0  0  0  0  0  0  0
   11.2620   24.6140  -44.4181 C   0  0  0  0  0  0  0  0  0  0  0  0
   12.4822   24.7036  -43.6861 N   0  0  0  0  0  0  0  0  0  0  0  0
   12.7015   25.2306  -42.4330 C   0  0  0  0  0  0  0  0  0  0  0  0
   13.9783   25.1575  -42.1371 N   0  0  0  0  0  0  0  0  0  0  0  0
   14.5717   24.5711  -43.2178 N   0  0  0  0  0  0  0  0  0  0  0  0
   13.6794   24.2895  -44.1556 N   0  0  0  0  0  0  0  0  0  0  0  0
   10.6367   17.7982  -41.2984 C   0  0  0  0  0  0  0  0  0  0  0  0
    9.8395   17.4619  -40.0559 C   0  0  0  0  0  0  0  0  0  0  0  0
    9.7174   18.4045  -39.0227 C   0  0  0  0  0  0  0  0  0  0  0  0
    9.0066   18.0900  -37.8645 C   0  0  0  0  0  0  0  0  0  0  0  0
    8.4177   16.8372  -37.7409 C   0  0  0  0  0  0  0  0  0  0  0  0
    7.7373   16.5350  -36.6273 F   0  0  0  0  0  0  0  0  0  0  0  0
    8.5266   15.8913  -38.7536 C   0  0  0  0  0  0  0  0  0  0  0  0
    9.2375   16.2025  -39.9132 C   0  0  0  0  0  0  0  0  0  0  0  0
  8  9  1  0
  9 10  2  0
 10 11  1  0
 11 12  1  0
 12 13  2  0
 13 14  1  0
 14  2  1  0
  2  3  2  0
  3  4  1  0
  4  5  1  0
  5  1  1  0
  1 39  1  0
 39 40  1  0
 40 41  2  0
 41 42  1  0
 42 43  2  0
 43 44  1  0
 43 45  1  0
 45 46  2  0
  1 21  1  0
 21 22  1  0
 22 23  2  0
 22 25  1  0
 25 26  2  0
 26 27  1  0
 27 28  2  0
 28 29  1  0
 29 30  1  0
 29 31  2  0
 31 32  1  0
 32 33  2  0
 33 34  1  0
 34 35  1  0
 35 36  2  0
 36 37  1  0
 37 38  2  0
  5  6  2  0
 14 15  2  0
 15 16  1  0
 16 17  2  0
 17  9  1  0
 17 12  1  0
  6  2  1  0
 46 40  1  0
 33 27  1  0
 38 34  1  0
  8 18  1  0
  8 19  1  0
 11 20  1  0
  4  7  1  0
 21 24  1  0
M  END
> <minimizedAffinity>
-9.25286

> <CNNscore>
0.3369275033

> <CNNaffinity>
7.0331001282

> <CNN_VS>
2.3696448803

> <CNNaffinity_variance>
0.7162752151

$$$$



 46 51  0  0  0  0  0  0  0  0999 V2000
   15.6419   20.1641  -41.1195 C   0  0  0  0  0  0  0  0  0  0  0  0
   16.6548   21.3296  -44.4028 C   0  0  0  0  0  0  0  0  0  0  0  0
   15.7649   22.3261  -44.0636 C   0  0  0  0  0  0  0  0  0  0  0  0
   15.2989   21.9930  -42.8210 N   0  0  0  0  0  0  0  0  0  0  0  0
   15.9157   20.8272  -42.4403 C   0  0  0  0  0  0  0  0  0  0  0  0
   16.7374   20.4051  -43.3833 N   0  0  0  0  0  0  0  0  0  0  0  0
   14.6390   22.4990  -42.2941 H   0  0  0  0  0  0  0  0  0  0  0  0
   19.8519   20.4154  -50.2178 N   0  0  0  0  0  0  0  0  0  0  0  0
   19.8283   21.1228  -49.0789 C   0  0  0  0  0  0  0  0  0  0  0  0
   20.7078   22.0815  -48.8065 N   0  0  0  0  0  0  0  0  0  0  0  0
   20.3330   22.5217  -47.5950 N   0  0  0  0  0  0  0  0  0  0  0  0
   19.2331   21.8900  -47.0795 C   0  0  0  0  0  0  0  0  0  0  0  0
   18.5414   22.0563  -45.8711 C   0  0  0  0  0  0  0  0  0  0  0  0
   17.4291   21.2293  -45.6336 C   0  0  0  0  0  0  0  0  0  0  0  0
   17.0515   20.2830  -46.5999 C   0  0  0  0  0  0  0  0  0  0  0  0
   17.7586   20.1319  -47.8029 C   0  0  0  0  0  0  0  0  0  0  0  0
   18.8719   20.9559  -48.0423 C   0  0  0  0  0  0  0  0  0  0  0  0
   20.5489   20.5895  -50.8910 H   0  0  0  0  0  0  0  0  0  0  0  0
   19.1724   19.7219  -50.3808 H   0  0  0  0  0  0  0  0  0  0  0  0
   20.8092   23.2388  -47.1171 H   0  0  0  0  0  0  0  0  0  0  0  0
   14.2626   20.4765  -40.7846 N   0  0  0  0  0  0  0  0  0  0  0  0
   13.6046   19.8291  -39.7773 C   0  0  0  0  0  0  0  0  0  0  0  0
   14.1023   18.9336  -39.1068 O   0  0  0  0  0  0  0  0  0  0  0  0
   13.7903   21.1723  -41.2966 H   0  0  0  0  0  0  0  0  0  0  0  0
   12.2152   20.3101  -39.5869 C   0  0  0  0  0  0  0  0  0  0  0  0
   11.2101   19.4229  -39.5373 C   0  0  0  0  0  0  0  0  0  0  0  0
    9.8046   19.8201  -39.3658 C   0  0  0  0  0  0  0  0  0  0  0  0
    9.5698   21.2001  -39.1952 C   0  0  0  0  0  0  0  0  0  0  0  0
    8.2752   21.7003  -39.0857 C   0  0  0  0  0  0  0  0  0  0  0  0
    8.0218   23.3873  -38.8766 Cl  0  0  0  0  0  0  0  0  0  0  0  0
    7.1874   20.8414  -39.1532 C   0  0  0  0  0  0  0  0  0  0  0  0
    7.3939   19.4705  -39.3287 C   0  0  0  0  0  0  0  0  0  0  0  0
    8.6980   18.9397  -39.4329 C   0  0  0  0  0  0  0  0  0  0  0  0
    8.8459   17.5295  -39.5813 N   0  0  0  0  0  0  0  0  0  0  0  0
    8.7603   16.7672  -40.7248 C   0  0  0  0  0  0  0  0  0  0  0  0
    8.9174   15.4986  -40.4264 N   0  0  0  0  0  0  0  0  0  0  0  0
    9.1099   15.4613  -39.0753 N   0  0  0  0  0  0  0  0  0  0  0  0
    9.0730   16.6795  -38.5560 N   0  0  0  0  0  0  0  0  0  0  0  0
   15.8752   18.6417  -41.1953 C   0  0  0  0  0  0  0  0  0  0  0  0
   17.1997   18.2199  -40.5950 C   0  0  0  0  0  0  0  0  0  0  0  0
   17.6051   18.7359  -39.3540 C   0  0  0  0  0  0  0  0  0  0  0  0
   18.8362   18.3712  -38.8093 C   0  0  0  0  0  0  0  0  0  0  0  0
   19.6588   17.4913  -39.5027 C   0  0  0  0  0  0  0  0  0  0  0  0
   20.8421   17.1435  -38.9800 F   0  0  0  0  0  0  0  0  0  0  0  0
   19.2741   16.9690  -40.7320 C   0  0  0  0  0  0  0  0  0  0  0  0
   18.0434   17.3323  -41.2800 C   0  0  0  0  0  0  0  0  0  0  0  0
  8  9  1  0
  9 10  2  0
 10 11  1  0
 11 12  1  0
 12 13  2  0
 13 14  1  0
 14  2  1  0
  2  3  2  0
  3  4  1  0
  4  5  1  0
  5  1  1  0
  1 39  1  0
 39 40  1  0
 40 41  2  0
 41 42  1  0
 42 43  2  0
 43 44  1  0
 43 45  1  0
 45 46  2  0
  1 21  1  0
 21 22  1  0
 22 23  2  0
 22 25  1  0
 25 26  2  0
 26 27  1  0
 27 28  2  0
 28 29  1  0
 29 30  1  0
 29 31  2  0
 31 32  1  0
 32 33  2  0
 33 34  1  0
 34 35  1  0
 35 36  2  0
 36 37  1  0
 37 38  2  0
  5  6  2  0
 14 15  2  0
 15 16  1  0
 16 17  2  0
 17  9  1  0
 17 12  1  0
  6  2  1  0
 46 40  1  0
 33 27  1  0
 38 34  1  0
  8 18  1  0
  8 19  1  0
 11 20  1  0
  4  7  1  0
 21 24  1  0
M  END
> <minimizedAffinity>
-10.53823

> <CNNscore>
0.3014366627

> <CNNaffinity>
7.5351653099

> <CNN_VS>
2.2713751793

> <CNNaffinity_variance>
0.8799133301

$$$$



 46 51  0  0  0  0  0  0  0  0999 V2000
   11.0305   19.4461  -40.4284 C   0  0  0  0  0  0  0  0  0  0  0  0
   14.6472   19.3376  -40.1595 C   0  0  0  0  0  0  0  0  0  0  0  0
   14.4198   20.6347  -39.7524 C   0  0  0  0  0  0  0  0  0  0  0  0
   13.0637   20.8056  -39.8157 N   0  0  0  0  0  0  0  0  0  0  0  0
   12.5115   19.6237  -40.2430 C   0  0  0  0  0  0  0  0  0  0  0  0
   13.4508   18.7223  -40.4612 N   0  0  0  0  0  0  0  0  0  0  0  0
   12.5719   21.6292  -39.5944 H   0  0  0  0  0  0  0  0  0  0  0  0
   20.3419   15.9309  -41.0744 N   0  0  0  0  0  0  0  0  0  0  0  0
   19.7244   16.8525  -40.3211 C   0  0  0  0  0  0  0  0  0  0  0  0
   20.3136   17.4587  -39.2952 N   0  0  0  0  0  0  0  0  0  0  0  0
   19.3655   18.2863  -38.8280 N   0  0  0  0  0  0  0  0  0  0  0  0
   18.1873   18.2464  -39.5244 C   0  0  0  0  0  0  0  0  0  0  0  0
   16.9815   18.9431  -39.3602 C   0  0  0  0  0  0  0  0  0  0  0  0
   15.9362   18.6646  -40.2588 C   0  0  0  0  0  0  0  0  0  0  0  0
   16.1325   17.7170  -41.2764 C   0  0  0  0  0  0  0  0  0  0  0  0
   17.3476   17.0298  -41.4225 C   0  0  0  0  0  0  0  0  0  0  0  0
   18.3936   17.3048  -40.5247 C   0  0  0  0  0  0  0  0  0  0  0  0
   21.2685   15.6686  -40.8701 H   0  0  0  0  0  0  0  0  0  0  0  0
   19.8686   15.5166  -41.8318 H   0  0  0  0  0  0  0  0  0  0  0  0
   19.5057   18.8729  -38.0499 H   0  0  0  0  0  0  0  0  0  0  0  0
   10.6439   20.3426  -41.5050 N   0  0  0  0  0  0  0  0  0  0  0  0
   10.1847   21.6054  -41.2569 C   0  0  0  0  0  0  0  0  0  0  0  0
   10.0382   22.0658  -40.1319 O   0  0  0  0  0  0  0  0  0  0  0  0
   10.7148   20.0323  -42.4366 H   0  0  0  0  0  0  0  0  0  0  0  0
    9.8640   22.3605  -42.4918 C   0  0  0  0  0  0  0  0  0  0  0  0
   10.5510   23.4759  -42.7811 C   0  0  0  0  0  0  0  0  0  0  0  0
   10.2842   24.2882  -43.9776 C   0  0  0  0  0  0  0  0  0  0  0  0
    9.1743   23.8966  -44.7543 C   0  0  0  0  0  0  0  0  0  0  0  0
    8.7879   24.6271  -45.8747 C   0  0  0  0  0  0  0  0  0  0  0  0
    7.4316   24.1229  -46.8021 Cl  0  0  0  0  0  0  0  0  0  0  0  0
    9.4900   25.7667  -46.2406 C   0  0  0  0  0  0  0  0  0  0  0  0
   10.5895   26.1791  -45.4829 C   0  0  0  0  0  0  0  0  0  0  0  0
   11.0050   25.4489  -44.3484 C   0  0  0  0  0  0  0  0  0  0  0  0
   12.1516   25.9027  -43.6329 N   0  0  0  0  0  0  0  0  0  0  0  0
   12.2417   26.9004  -42.6881 C   0  0  0  0  0  0  0  0  0  0  0  0
   13.4886   27.0345  -42.3006 N   0  0  0  0  0  0  0  0  0  0  0  0
   14.1941   26.1041  -43.0080 N   0  0  0  0  0  0  0  0  0  0  0  0
   13.3982   25.4135  -43.8108 N   0  0  0  0  0  0  0  0  0  0  0  0
   10.6762   17.9816  -40.7564 C   0  0  0  0  0  0  0  0  0  0  0  0
    9.7267   17.3673  -39.7496 C   0  0  0  0  0  0  0  0  0  0  0  0
    9.2275   16.0713  -39.9542 C   0  0  0  0  0  0  0  0  0  0  0  0
    8.3317   15.5111  -39.0435 C   0  0  0  0  0  0  0  0  0  0  0  0
    7.9380   16.2442  -37.9303 C   0  0  0  0  0  0  0  0  0  0  0  0
    7.0758   15.7065  -37.0575 F   0  0  0  0  0  0  0  0  0  0  0  0
    8.4224   17.5283  -37.7102 C   0  0  0  0  0  0  0  0  0  0  0  0
    9.3182   18.0918  -38.6196 C   0  0  0  0  0  0  0  0  0  0  0  0
  8  9  1  0
  9 10  2  0
 10 11  1  0
 11 12  1  0
 12 13  2  0
 13 14  1  0
 14  2  1  0
  2  3  2  0
  3  4  1  0
  4  5  1  0
  5  1  1  0
  1 39  1  0
 39 40  1  0
 40 41  2  0
 41 42  1  0
 42 43  2  0
 43 44  1  0
 43 45  1  0
 45 46  2  0
  1 21  1  0
 21 22  1  0
 22 23  2  0
 22 25  1  0
 25 26  2  0
 26 27  1  0
 27 28  2  0
 28 29  1  0
 29 30  1  0
 29 31  2  0
 31 32  1  0
 32 33  2  0
 33 34  1  0
 34 35  1  0
 35 36  2  0
 36 37  1  0
 37 38  2  0
  5  6  2  0
 14 15  2  0
 15 16  1  0
 16 17  2  0
 17  9  1  0
 17 12  1  0
  6  2  1  0
 46 40  1  0
 33 27  1  0
 38 34  1  0
  8 18  1  0
  8 19  1  0
 11 20  1  0
  4  7  1  0
 21 24  1  0
M  END
> <minimizedAffinity>
-10.56164

> <CNNscore>
0.2924360931

> <CNNaffinity>
7.3490238190

> <CNN_VS>
2.1491198540

> <CNNaffinity_variance>
0.6567354798

$$$$



 46 51  0  0  0  0  0  0  0  0999 V2000
   10.8980   19.1836  -39.7652 C   0  0  0  0  0  0  0  0  0  0  0  0
   14.5160   19.4491  -39.8216 C   0  0  0  0  0  0  0  0  0  0  0  0
   14.1810   20.7840  -39.8972 C   0  0  0  0  0  0  0  0  0  0  0  0
   12.8132   20.8189  -39.8890 N   0  0  0  0  0  0  0  0  0  0  0  0
   12.3611   19.5258  -39.7998 C   0  0  0  0  0  0  0  0  0  0  0  0
   13.3736   18.6796  -39.7618 N   0  0  0  0  0  0  0  0  0  0  0  0
   12.2532   21.6271  -39.9383 H   0  0  0  0  0  0  0  0  0  0  0  0
   20.7385   17.0698  -39.1199 N   0  0  0  0  0  0  0  0  0  0  0  0
   19.7005   17.1947  -39.9596 C   0  0  0  0  0  0  0  0  0  0  0  0
   19.7125   16.7129  -41.1984 N   0  0  0  0  0  0  0  0  0  0  0  0
   18.5057   17.0482  -41.6814 N   0  0  0  0  0  0  0  0  0  0  0  0
   17.7079   17.7188  -40.7935 C   0  0  0  0  0  0  0  0  0  0  0  0
   16.4066   18.2285  -40.9076 C   0  0  0  0  0  0  0  0  0  0  0  0
   15.8593   18.8842  -39.7904 C   0  0  0  0  0  0  0  0  0  0  0  0
   16.6197   19.0014  -38.6157 C   0  0  0  0  0  0  0  0  0  0  0  0
   17.9215   18.4849  -38.5229 C   0  0  0  0  0  0  0  0  0  0  0  0
   18.4718   17.8305  -39.6385 C   0  0  0  0  0  0  0  0  0  0  0  0
   21.5595   16.6146  -39.4164 H   0  0  0  0  0  0  0  0  0  0  0  0
   20.6795   17.4334  -38.2069 H   0  0  0  0  0  0  0  0  0  0  0  0
   18.2184   16.8301  -42.5975 H   0  0  0  0  0  0  0  0  0  0  0  0
   10.2509   20.0624  -40.7251 N   0  0  0  0  0  0  0  0  0  0  0  0
   10.3841   19.8756  -42.0720 C   0  0  0  0  0  0  0  0  0  0  0  0
   11.0662   18.9893  -42.5704 O   0  0  0  0  0  0  0  0  0  0  0  0
    9.7028   20.8112  -40.3965 H   0  0  0  0  0  0  0  0  0  0  0  0
    9.6299   20.8683  -42.8742 C   0  0  0  0  0  0  0  0  0  0  0  0
    8.3100   21.0095  -42.6791 C   0  0  0  0  0  0  0  0  0  0  0  0
    7.4890   21.9606  -43.4433 C   0  0  0  0  0  0  0  0  0  0  0  0
    7.6478   21.9263  -44.8440 C   0  0  0  0  0  0  0  0  0  0  0  0
    6.8785   22.7369  -45.6743 C   0  0  0  0  0  0  0  0  0  0  0  0
    7.0969   22.6734  -47.3778 Cl  0  0  0  0  0  0  0  0  0  0  0  0
    5.9294   23.5908  -45.1307 C   0  0  0  0  0  0  0  0  0  0  0  0
    5.7484   23.6381  -43.7458 C   0  0  0  0  0  0  0  0  0  0  0  0
    6.5235   22.8319  -42.8841 C   0  0  0  0  0  0  0  0  0  0  0  0
    6.3136   22.9458  -41.4785 N   0  0  0  0  0  0  0  0  0  0  0  0
    6.9787   23.7347  -40.5666 C   0  0  0  0  0  0  0  0  0  0  0  0
    6.5073   23.5149  -39.3613 N   0  0  0  0  0  0  0  0  0  0  0  0
    5.5272   22.5773  -39.5167 N   0  0  0  0  0  0  0  0  0  0  0  0
    5.3988   22.2300  -40.7887 N   0  0  0  0  0  0  0  0  0  0  0  0
   10.6592   17.6989  -40.1062 C   0  0  0  0  0  0  0  0  0  0  0  0
    9.5291   17.0867  -39.3057 C   0  0  0  0  0  0  0  0  0  0  0  0
    9.0484   15.8088  -39.6321 C   0  0  0  0  0  0  0  0  0  0  0  0
    7.9898   15.2516  -38.9149 C   0  0  0  0  0  0  0  0  0  0  0  0
    7.4150   15.9694  -37.8728 C   0  0  0  0  0  0  0  0  0  0  0  0
    6.3968   15.4346  -37.1861 F   0  0  0  0  0  0  0  0  0  0  0  0
    7.8781   17.2354  -37.5341 C   0  0  0  0  0  0  0  0  0  0  0  0
    8.9365   17.7960  -38.2500 C   0  0  0  0  0  0  0  0  0  0  0  0
  8  9  1  0
  9 10  2  0
 10 11  1  0
 11 12  1  0
 12 13  2  0
 13 14  1  0
 14  2  1  0
  2  3  2  0
  3  4  1  0
  4  5  1  0
  5  1  1  0
  1 39  1  0
 39 40  1  0
 40 41  2  0
 41 42  1  0
 42 43  2  0
 43 44  1  0
 43 45  1  0
 45 46  2  0
  1 21  1  0
 21 22  1  0
 22 23  2  0
 22 25  1  0
 25 26  2  0
 26 27  1  0
 27 28  2  0
 28 29  1  0
 29 30  1  0
 29 31  2  0
 31 32  1  0
 32 33  2  0
 33 34  1  0
 34 35  1  0
 35 36  2  0
 36 37  1  0
 37 38  2  0
  5  6  2  0
 14 15  2  0
 15 16  1  0
 16 17  2  0
 17  9  1  0
 17 12  1  0
  6  2  1  0
 46 40  1  0
 33 27  1  0
 38 34  1  0
  8 18  1  0
  8 19  1  0
 11 20  1  0
  4  7  1  0
 21 24  1  0
M  END
> <minimizedAffinity>
-8.77849

> <CNNscore>
0.2621076405

> <CNNaffinity>
7.0440468788

> <CNN_VS>
1.8462984562

> <CNNaffinity_variance>
0.5257009864

$$$$



 46 51  0  0  0  0  0  0  0  0999 V2000
   11.4789   20.1210  -41.6337 C   0  0  0  0  0  0  0  0  0  0  0  0
   14.9235   19.6504  -40.5954 C   0  0  0  0  0  0  0  0  0  0  0  0
   14.6129   20.7828  -39.8737 C   0  0  0  0  0  0  0  0  0  0  0  0
   13.3131   21.0722  -40.1884 N   0  0  0  0  0  0  0  0  0  0  0  0
   12.8727   20.1174  -41.0710 C   0  0  0  0  0  0  0  0  0  0  0  0
   13.8312   19.2491  -41.3350 N   0  0  0  0  0  0  0  0  0  0  0  0
   12.7875   21.8299  -39.8435 H   0  0  0  0  0  0  0  0  0  0  0  0
   20.6218   16.1756  -41.1673 N   0  0  0  0  0  0  0  0  0  0  0  0
   19.8870   16.9511  -40.3569 C   0  0  0  0  0  0  0  0  0  0  0  0
   20.2766   17.2870  -39.1312 N   0  0  0  0  0  0  0  0  0  0  0  0
   19.2715   18.0522  -38.6769 N   0  0  0  0  0  0  0  0  0  0  0  0
   18.2509   18.2341  -39.5713 C   0  0  0  0  0  0  0  0  0  0  0  0
   17.0496   18.9521  -39.4839 C   0  0  0  0  0  0  0  0  0  0  0  0
   16.1942   18.9365  -40.6000 C   0  0  0  0  0  0  0  0  0  0  0  0
   16.5669   18.2179  -41.7474 C   0  0  0  0  0  0  0  0  0  0  0  0
   17.7740   17.5046  -41.8136 C   0  0  0  0  0  0  0  0  0  0  0  0
   18.6301   17.5170  -40.6989 C   0  0  0  0  0  0  0  0  0  0  0  0
   21.4858   15.8194  -40.8576 H   0  0  0  0  0  0  0  0  0  0  0  0
   20.2972   15.9624  -42.0720 H   0  0  0  0  0  0  0  0  0  0  0  0
   19.2686   18.4493  -37.7760 H   0  0  0  0  0  0  0  0  0  0  0  0
   11.4263   21.2183  -42.5854 N   0  0  0  0  0  0  0  0  0  0  0  0
   10.2892   21.5064  -43.2859 C   0  0  0  0  0  0  0  0  0  0  0  0
    9.2524   20.8618  -43.1924 O   0  0  0  0  0  0  0  0  0  0  0  0
   12.2305   21.7679  -42.7289 H   0  0  0  0  0  0  0  0  0  0  0  0
   10.4417   22.6733  -44.1876 C   0  0  0  0  0  0  0  0  0  0  0  0
   11.6710   23.0848  -44.5331 C   0  0  0  0  0  0  0  0  0  0  0  0
   11.9068   24.2412  -45.4104 C   0  0  0  0  0  0  0  0  0  0  0  0
   10.7677   24.7739  -46.0487 C   0  0  0  0  0  0  0  0  0  0  0  0
   10.8589   25.9063  -46.8534 C   0  0  0  0  0  0  0  0  0  0  0  0
    9.4526   26.5305  -47.6192 Cl  0  0  0  0  0  0  0  0  0  0  0  0
   12.0813   26.5382  -47.0326 C   0  0  0  0  0  0  0  0  0  0  0  0
   13.2234   26.0334  -46.4052 C   0  0  0  0  0  0  0  0  0  0  0  0
   13.1564   24.8811  -45.5922 C   0  0  0  0  0  0  0  0  0  0  0  0
   14.3607   24.3967  -45.0027 N   0  0  0  0  0  0  0  0  0  0  0  0
   14.7438   24.4152  -43.6802 C   0  0  0  0  0  0  0  0  0  0  0  0
   15.9480   23.9070  -43.5588 N   0  0  0  0  0  0  0  0  0  0  0  0
   16.3275   23.5584  -44.8231 N   0  0  0  0  0  0  0  0  0  0  0  0
   15.3774   23.8450  -45.7007 N   0  0  0  0  0  0  0  0  0  0  0  0
   11.1390   18.7741  -42.3032 C   0  0  0  0  0  0  0  0  0  0  0  0
   10.2774   17.8856  -41.4311 C   0  0  0  0  0  0  0  0  0  0  0  0
   10.3344   18.0045  -40.0335 C   0  0  0  0  0  0  0  0  0  0  0  0
    9.5626   17.1701  -39.2249 C   0  0  0  0  0  0  0  0  0  0  0  0
    8.7345   16.2211  -39.8125 C   0  0  0  0  0  0  0  0  0  0  0  0
    7.9955   15.4186  -39.0352 F   0  0  0  0  0  0  0  0  0  0  0  0
    8.6637   16.0894  -41.1944 C   0  0  0  0  0  0  0  0  0  0  0  0
    9.4349   16.9220  -42.0061 C   0  0  0  0  0  0  0  0  0  0  0  0
  8  9  1  0
  9 10  2  0
 10 11  1  0
 11 12  1  0
 12 13  2  0
 13 14  1  0
 14  2  1  0
  2  3  2  0
  3  4  1  0
  4  5  1  0
  5  1  1  0
  1 39  1  0
 39 40  1  0
 40 41  2  0
 41 42  1  0
 42 43  2  0
 43 44  1  0
 43 45  1  0
 45 46  2  0
  1 21  1  0
 21 22  1  0
 22 23  2  0
 22 25  1  0
 25 26  2  0
 26 27  1  0
 27 28  2  0
 28 29  1  0
 29 30  1  0
 29 31  2  0
 31 32  1  0
 32 33  2  0
 33 34  1  0
 34 35  1  0
 35 36  2  0
 36 37  1  0
 37 38  2  0
  5  6  2  0
 14 15  2  0
 15 16  1  0
 16 17  2  0
 17  9  1  0
 17 12  1  0
  6  2  1  0
 46 40  1  0
 33 27  1  0
 38 34  1  0
  8 18  1  0
  8 19  1  0
 11 20  1  0
  4  7  1  0
 21 24  1  0
M  END
> <minimizedAffinity>
-9.61383

> <CNNscore>
0.2590907514

> <CNNaffinity>
7.0833067894

> <CNN_VS>
1.8352192640

> <CNNaffinity_variance>
0.8123888969

$$$$



 46 51  0  0  0  0  0  0  0  0999 V2000
   15.0559   19.5168  -39.8922 C   0  0  0  0  0  0  0  0  0  0  0  0
   16.0357   21.1270  -42.9925 C   0  0  0  0  0  0  0  0  0  0  0  0
   15.4940   22.2062  -42.3279 C   0  0  0  0  0  0  0  0  0  0  0  0
   15.0741   21.7189  -41.1202 N   0  0  0  0  0  0  0  0  0  0  0  0
   15.3762   20.3805  -41.0799 C   0  0  0  0  0  0  0  0  0  0  0  0
   15.9548   19.9992  -42.2035 N   0  0  0  0  0  0  0  0  0  0  0  0
   14.6339   22.2360  -40.4074 H   0  0  0  0  0  0  0  0  0  0  0  0
   19.0915   21.6071  -48.9341 N   0  0  0  0  0  0  0  0  0  0  0  0
   18.1744   20.9344  -48.2239 C   0  0  0  0  0  0  0  0  0  0  0  0
   17.4872   19.9100  -48.7193 N   0  0  0  0  0  0  0  0  0  0  0  0
   16.6964   19.5358  -47.7012 N   0  0  0  0  0  0  0  0  0  0  0  0
   16.8574   20.2743  -46.5595 C   0  0  0  0  0  0  0  0  0  0  0  0
   16.2368   20.2004  -45.3043 C   0  0  0  0  0  0  0  0  0  0  0  0
   16.6311   21.1272  -44.3229 C   0  0  0  0  0  0  0  0  0  0  0  0
   17.6196   22.0775  -44.6258 C   0  0  0  0  0  0  0  0  0  0  0  0
   18.2275   22.1349  -45.8896 C   0  0  0  0  0  0  0  0  0  0  0  0
   17.8342   21.2109  -46.8731 C   0  0  0  0  0  0  0  0  0  0  0  0
   19.2723   21.3554  -49.8685 H   0  0  0  0  0  0  0  0  0  0  0  0
   19.5841   22.3528  -48.5210 H   0  0  0  0  0  0  0  0  0  0  0  0
   16.0544   18.7926  -47.7697 H   0  0  0  0  0  0  0  0  0  0  0  0
   13.6244   19.6397  -39.6729 N   0  0  0  0  0  0  0  0  0  0  0  0
   12.9908   18.9585  -38.6722 C   0  0  0  0  0  0  0  0  0  0  0  0
   13.5589   18.1847  -37.9123 O   0  0  0  0  0  0  0  0  0  0  0  0
   13.0979   20.2288  -40.2603 H   0  0  0  0  0  0  0  0  0  0  0  0
   11.5363   19.2385  -38.6087 C   0  0  0  0  0  0  0  0  0  0  0  0
   10.8569   19.4639  -39.7433 C   0  0  0  0  0  0  0  0  0  0  0  0
    9.4171   19.7626  -39.7638 C   0  0  0  0  0  0  0  0  0  0  0  0
    9.0703   21.1294  -39.7582 C   0  0  0  0  0  0  0  0  0  0  0  0
    7.7405   21.5335  -39.8384 C   0  0  0  0  0  0  0  0  0  0  0  0
    7.3499   23.2072  -39.8275 Cl  0  0  0  0  0  0  0  0  0  0  0  0
    6.7290   20.5886  -39.9357 C   0  0  0  0  0  0  0  0  0  0  0  0
    7.0476   19.2280  -39.9500 C   0  0  0  0  0  0  0  0  0  0  0  0
    8.3883   18.7949  -39.8605 C   0  0  0  0  0  0  0  0  0  0  0  0
    8.6485   17.3932  -39.8504 N   0  0  0  0  0  0  0  0  0  0  0  0
    8.5536   16.4892  -40.8847 C   0  0  0  0  0  0  0  0  0  0  0  0
    8.8404   15.2843  -40.4500 N   0  0  0  0  0  0  0  0  0  0  0  0
    9.1252   15.4319  -39.1230 N   0  0  0  0  0  0  0  0  0  0  0  0
    9.0168   16.6989  -38.7516 N   0  0  0  0  0  0  0  0  0  0  0  0
   15.4675   18.0507  -40.1352 C   0  0  0  0  0  0  0  0  0  0  0  0
   16.9588   17.8288  -39.9968 C   0  0  0  0  0  0  0  0  0  0  0  0
   17.6324   16.9947  -40.9031 C   0  0  0  0  0  0  0  0  0  0  0  0
   19.0013   16.7658  -40.7640 C   0  0  0  0  0  0  0  0  0  0  0  0
   19.6950   17.3709  -39.7227 C   0  0  0  0  0  0  0  0  0  0  0  0
   21.0091   17.1486  -39.5884 F   0  0  0  0  0  0  0  0  0  0  0  0
   19.0456   18.2008  -38.8163 C   0  0  0  0  0  0  0  0  0  0  0  0
   17.6762   18.4314  -38.9522 C   0  0  0  0  0  0  0  0  0  0  0  0
  8  9  1  0
  9 10  2  0
 10 11  1  0
 11 12  1  0
 12 13  2  0
 13 14  1  0
 14  2  1  0
  2  3  2  0
  3  4  1  0
  4  5  1  0
  5  1  1  0
  1 39  1  0
 39 40  1  0
 40 41  2  0
 41 42  1  0
 42 43  2  0
 43 44  1  0
 43 45  1  0
 45 46  2  0
  1 21  1  0
 21 22  1  0
 22 23  2  0
 22 25  1  0
 25 26  2  0
 26 27  1  0
 27 28  2  0
 28 29  1  0
 29 30  1  0
 29 31  2  0
 31 32  1  0
 32 33  2  0
 33 34  1  0
 34 35  1  0
 35 36  2  0
 36 37  1  0
 37 38  2  0
  5  6  2  0
 14 15  2  0
 15 16  1  0
 16 17  2  0
 17  9  1  0
 17 12  1  0
  6  2  1  0
 46 40  1  0
 33 27  1  0
 38 34  1  0
  8 18  1  0
  8 19  1  0
 11 20  1  0
  4  7  1  0
 21 24  1  0
M  END
> <minimizedAffinity>
-10.35330

> <CNNscore>
0.2588424385

> <CNNaffinity>
7.5391020775

> <CNN_VS>
1.9514396191

> <CNNaffinity_variance>
0.2878657877

$$$$
