


 33 37  0  0  0  0  0  0  0  0999 V2000
   13.4717  -25.9331  -20.4304 C   0  0  0  0  0  0  0  0  0  0  0  0
   14.4183  -26.8859  -20.2741 C   0  0  0  0  0  0  0  0  0  0  0  0
   14.0415  -28.2256  -19.8389 C   0  0  0  0  0  0  0  0  0  0  0  0
   15.4100  -29.4793  -19.6368 Br  0  0  0  0  0  0  0  0  0  0  0  0
   12.7546  -28.5375  -19.5953 C   0  0  0  0  0  0  0  0  0  0  0  0
   11.7463  -27.5512  -19.7610 C   0  0  0  0  0  0  0  0  0  0  0  0
   10.4470  -27.6001  -19.5933 N   0  0  0  0  0  0  0  0  0  0  0  0
   10.0335  -26.3386  -19.9045 C   0  0  0  0  0  0  0  0  0  0  0  0
   11.0116  -25.5054  -20.2620 N   0  0  0  0  0  0  0  0  0  0  0  0
   12.1263  -26.2729  -20.1742 N   0  0  0  0  0  0  0  0  0  0  0  0
   14.6356  -22.0145  -21.7492 C   0  0  0  0  0  0  0  0  0  0  0  0
   14.8818  -22.4149  -20.4367 C   0  0  0  0  0  0  0  0  0  0  0  0
   14.4985  -23.6915  -20.0061 C   0  0  0  0  0  0  0  0  0  0  0  0
   13.8650  -24.5849  -20.8817 C   0  0  0  0  0  0  0  0  0  0  0  0
   13.6180  -24.1745  -22.1964 C   0  0  0  0  0  0  0  0  0  0  0  0
   14.0025  -22.9001  -22.6233 C   0  0  0  0  0  0  0  0  0  0  0  0
   13.9738  -19.7802  -22.2190 C   0  0  0  0  0  0  0  0  0  0  0  0
   14.9579  -20.8035  -22.2961 O   0  0  0  0  0  0  0  0  0  0  0  0
    8.7442  -25.9594  -19.8553 N   0  0  0  0  0  0  0  0  0  0  0  0
    8.2375  -26.3930  -19.1312 H   0  0  0  0  0  0  0  0  0  0  0  0
    7.9696  -25.0722  -20.6235 C   0  0  0  0  0  0  0  0  0  0  0  0
    8.5879  -23.9422  -21.1735 C   0  0  0  0  0  0  0  0  0  0  0  0
    7.8690  -23.0218  -21.9492 C   0  0  0  0  0  0  0  0  0  0  0  0
    6.5035  -23.1883  -22.2166 C   0  0  0  0  0  0  0  0  0  0  0  0
    5.8883  -24.3091  -21.6490 C   0  0  0  0  0  0  0  0  0  0  0  0
    6.6074  -25.2348  -20.8731 C   0  0  0  0  0  0  0  0  0  0  0  0
    5.8270  -22.2327  -22.9908 N   0  0  0  0  0  0  0  0  0  0  0  0
    6.6017  -21.4942  -24.0109 C   0  0  0  0  0  0  0  0  0  0  0  0
    5.6582  -20.6642  -24.9125 C   0  0  0  0  0  0  0  0  0  0  0  0
    4.8187  -19.7225  -24.1389 N   0  0  0  0  0  0  0  0  0  0  0  0
    3.9142  -18.9925  -25.0238 C   0  0  0  0  0  0  0  0  0  0  0  0
    4.0555  -20.4838  -23.1252 C   0  0  0  0  0  0  0  0  0  0  0  0
    4.9593  -21.3294  -22.1955 C   0  0  0  0  0  0  0  0  0  0  0  0
 17 18  1  0
 18 11  1  0
 11 12  2  0
 12 13  1  0
 13 14  2  0
 14  1  1  0
  1  2  2  0
  2  3  1  0
  3  4  1  0
  3  5  2  0
  5  6  1  0
  6  7  2  0
  7  8  1  0
  8 19  1  0
 19 21  1  0
 21 22  2  0
 22 23  1  0
 23 24  2  0
 24 27  1  0
 27 28  1  0
 28 29  1  0
 29 30  1  0
 30 31  1  0
 30 32  1  0
 32 33  1  0
 24 25  1  0
 25 26  2  0
  8  9  2  0
  9 10  1  0
 14 15  1  0
 15 16  2  0
 16 11  1  0
 10  1  1  0
 10  6  1  0
 26 21  1  0
 33 27  1  0
 19 20  1  0
M  END
> <minimizedAffinity>
-7.97005

> <CNNscore>
0.9570572376

> <CNNaffinity>
7.4703922272

> <CNN_VS>
7.1495928764

> <CNNaffinity_variance>
0.0045653167

$$$$



 33 37  0  0  0  0  0  0  0  0999 V2000
   13.5535  -25.7048  -20.5803 C   0  0  0  0  0  0  0  0  0  0  0  0
   14.4187  -26.7171  -20.3458 C   0  0  0  0  0  0  0  0  0  0  0  0
   13.9208  -28.0202  -19.9211 C   0  0  0  0  0  0  0  0  0  0  0  0
   15.1818  -29.3607  -19.6076 Br  0  0  0  0  0  0  0  0  0  0  0  0
   12.6016  -28.2391  -19.7645 C   0  0  0  0  0  0  0  0  0  0  0  0
   11.6780  -27.1893  -20.0130 C   0  0  0  0  0  0  0  0  0  0  0  0
   10.3700  -27.1465  -19.9363 N   0  0  0  0  0  0  0  0  0  0  0  0
   10.0675  -25.8653  -20.2918 C   0  0  0  0  0  0  0  0  0  0  0  0
   11.1233  -25.1073  -20.5903 N   0  0  0  0  0  0  0  0  0  0  0  0
   12.1734  -25.9474  -20.4148 N   0  0  0  0  0  0  0  0  0  0  0  0
   15.0390  -21.8813  -21.8544 C   0  0  0  0  0  0  0  0  0  0  0  0
   14.2883  -22.6684  -22.7265 C   0  0  0  0  0  0  0  0  0  0  0  0
   13.8074  -23.9169  -22.3117 C   0  0  0  0  0  0  0  0  0  0  0  0
   14.0697  -24.3948  -21.0198 C   0  0  0  0  0  0  0  0  0  0  0  0
   14.8269  -23.6007  -20.1515 C   0  0  0  0  0  0  0  0  0  0  0  0
   15.3048  -22.3547  -20.5681 C   0  0  0  0  0  0  0  0  0  0  0  0
   16.9701  -20.5796  -22.3311 C   0  0  0  0  0  0  0  0  0  0  0  0
   15.5643  -20.6494  -22.1302 O   0  0  0  0  0  0  0  0  0  0  0  0
    8.8072  -25.3981  -20.3381 N   0  0  0  0  0  0  0  0  0  0  0  0
    8.1440  -26.0283  -19.9744 H   0  0  0  0  0  0  0  0  0  0  0  0
    8.2401  -24.1964  -20.7979 C   0  0  0  0  0  0  0  0  0  0  0  0
    8.9240  -22.9968  -20.5640 C   0  0  0  0  0  0  0  0  0  0  0  0
    8.4104  -21.7669  -20.9991 C   0  0  0  0  0  0  0  0  0  0  0  0
    7.1954  -21.6772  -21.6915 C   0  0  0  0  0  0  0  0  0  0  0  0
    6.5086  -22.8770  -21.9057 C   0  0  0  0  0  0  0  0  0  0  0  0
    7.0228  -24.1115  -21.4727 C   0  0  0  0  0  0  0  0  0  0  0  0
    6.7196  -20.4205  -22.0970 N   0  0  0  0  0  0  0  0  0  0  0  0
    6.7629  -20.0963  -23.5390 C   0  0  0  0  0  0  0  0  0  0  0  0
    5.9946  -18.7845  -23.8232 C   0  0  0  0  0  0  0  0  0  0  0  0
    6.5112  -17.6433  -23.0352 N   0  0  0  0  0  0  0  0  0  0  0  0
    5.7302  -16.4378  -23.3016 C   0  0  0  0  0  0  0  0  0  0  0  0
    6.4593  -17.9918  -21.5980 C   0  0  0  0  0  0  0  0  0  0  0  0
    7.2184  -19.2987  -21.2637 C   0  0  0  0  0  0  0  0  0  0  0  0
 17 18  1  0
 18 11  1  0
 11 12  2  0
 12 13  1  0
 13 14  2  0
 14  1  1  0
  1  2  2  0
  2  3  1  0
  3  4  1  0
  3  5  2  0
  5  6  1  0
  6  7  2  0
  7  8  1  0
  8 19  1  0
 19 21  1  0
 21 22  2  0
 22 23  1  0
 23 24  2  0
 24 27  1  0
 27 28  1  0
 28 29  1  0
 29 30  1  0
 30 31  1  0
 30 32  1  0
 32 33  1  0
 24 25  1  0
 25 26  2  0
  8  9  2  0
  9 10  1  0
 14 15  1  0
 15 16  2  0
 16 11  1  0
 10  1  1  0
 10  6  1  0
 26 21  1  0
 33 27  1  0
 19 20  1  0
M  END
> <minimizedAffinity>
-7.78680

> <CNNscore>
0.8376822472

> <CNNaffinity>
7.1612663269

> <CNN_VS>
5.9988656044

> <CNNaffinity_variance>
0.0039168652

$$$$



 33 37  0  0  0  0  0  0  0  0999 V2000
   17.4349  -26.8260  -20.0020 C   0  0  0  0  0  0  0  0  0  0  0  0
   18.4241  -27.5956  -19.4946 C   0  0  0  0  0  0  0  0  0  0  0  0
   19.8059  -27.1319  -19.5387 C   0  0  0  0  0  0  0  0  0  0  0  0
   21.1129  -28.2592  -18.8269 Br  0  0  0  0  0  0  0  0  0  0  0  0
   20.1176  -25.9362  -20.0731 C   0  0  0  0  0  0  0  0  0  0  0  0
   19.0906  -25.1117  -20.6045 C   0  0  0  0  0  0  0  0  0  0  0  0
   19.1301  -23.9284  -21.1673 N   0  0  0  0  0  0  0  0  0  0  0  0
   17.8254  -23.6701  -21.4680 C   0  0  0  0  0  0  0  0  0  0  0  0
   16.9728  -24.6335  -21.1168 N   0  0  0  0  0  0  0  0  0  0  0  0
   17.7741  -25.5740  -20.5573 N   0  0  0  0  0  0  0  0  0  0  0  0
   13.3743  -28.2178  -19.8449 C   0  0  0  0  0  0  0  0  0  0  0  0
   13.6531  -26.9107  -20.2416 C   0  0  0  0  0  0  0  0  0  0  0  0
   14.9772  -26.4562  -20.2889 C   0  0  0  0  0  0  0  0  0  0  0  0
   16.0400  -27.3021  -19.9413 C   0  0  0  0  0  0  0  0  0  0  0  0
   15.7520  -28.6115  -19.5406 C   0  0  0  0  0  0  0  0  0  0  0  0
   14.4296  -29.0624  -19.4952 C   0  0  0  0  0  0  0  0  0  0  0  0
   11.0210  -27.9012  -19.7333 C   0  0  0  0  0  0  0  0  0  0  0  0
   12.1338  -28.7859  -19.7567 O   0  0  0  0  0  0  0  0  0  0  0  0
   17.4253  -22.5369  -22.0716 N   0  0  0  0  0  0  0  0  0  0  0  0
   17.9462  -22.3198  -22.8783 H   0  0  0  0  0  0  0  0  0  0  0  0
   16.4175  -21.5977  -21.7897 C   0  0  0  0  0  0  0  0  0  0  0  0
   16.1299  -21.3006  -20.4516 C   0  0  0  0  0  0  0  0  0  0  0  0
   15.1373  -20.3723  -20.1071 C   0  0  0  0  0  0  0  0  0  0  0  0
   14.3904  -19.6943  -21.0798 C   0  0  0  0  0  0  0  0  0  0  0  0
   14.6701  -20.0093  -22.4138 C   0  0  0  0  0  0  0  0  0  0  0  0
   15.6666  -20.9376  -22.7617 C   0  0  0  0  0  0  0  0  0  0  0  0
   13.4008  -18.7816  -20.6826 N   0  0  0  0  0  0  0  0  0  0  0  0
   13.0480  -17.6924  -21.6182 C   0  0  0  0  0  0  0  0  0  0  0  0
   11.7951  -16.9345  -21.1205 C   0  0  0  0  0  0  0  0  0  0  0  0
   11.9680  -16.3890  -19.7556 N   0  0  0  0  0  0  0  0  0  0  0  0
   10.7480  -15.7206  -19.3097 C   0  0  0  0  0  0  0  0  0  0  0  0
   12.3214  -17.4959  -18.8393 C   0  0  0  0  0  0  0  0  0  0  0  0
   13.5734  -18.2837  -19.2955 C   0  0  0  0  0  0  0  0  0  0  0  0
 17 18  1  0
 18 11  1  0
 11 12  2  0
 12 13  1  0
 13 14  2  0
 14  1  1  0
  1  2  2  0
  2  3  1  0
  3  4  1  0
  3  5  2  0
  5  6  1  0
  6  7  2  0
  7  8  1  0
  8 19  1  0
 19 21  1  0
 21 22  2  0
 22 23  1  0
 23 24  2  0
 24 27  1  0
 27 28  1  0
 28 29  1  0
 29 30  1  0
 30 31  1  0
 30 32  1  0
 32 33  1  0
 24 25  1  0
 25 26  2  0
  8  9  2  0
  9 10  1  0
 14 15  1  0
 15 16  2  0
 16 11  1  0
 10  1  1  0
 10  6  1  0
 26 21  1  0
 33 27  1  0
 19 20  1  0
M  END
> <minimizedAffinity>
-8.72033

> <CNNscore>
0.6699862480

> <CNNaffinity>
6.9245800972

> <CNN_VS>
4.6393733025

> <CNNaffinity_variance>
0.0466178767

$$$$



 33 37  0  0  0  0  0  0  0  0999 V2000
   13.1771  -24.3844  -20.3073 C   0  0  0  0  0  0  0  0  0  0  0  0
   14.2229  -25.2415  -20.3096 C   0  0  0  0  0  0  0  0  0  0  0  0
   13.9880  -26.6805  -20.2967 C   0  0  0  0  0  0  0  0  0  0  0  0
   15.4859  -27.7949  -20.2896 Br  0  0  0  0  0  0  0  0  0  0  0  0
   12.7366  -27.1772  -20.2908 C   0  0  0  0  0  0  0  0  0  0  0  0
   11.6263  -26.2918  -20.2952 C   0  0  0  0  0  0  0  0  0  0  0  0
   10.3349  -26.5174  -20.2923 N   0  0  0  0  0  0  0  0  0  0  0  0
    9.7888  -25.2680  -20.2956 C   0  0  0  0  0  0  0  0  0  0  0  0
   10.6769  -24.2732  -20.3041 N   0  0  0  0  0  0  0  0  0  0  0  0
   11.8705  -24.9172  -20.3033 N   0  0  0  0  0  0  0  0  0  0  0  0
   13.9293  -20.1561  -20.3795 C   0  0  0  0  0  0  0  0  0  0  0  0
   13.9697  -20.8554  -19.1741 C   0  0  0  0  0  0  0  0  0  0  0  0
   13.7205  -22.2336  -19.1506 C   0  0  0  0  0  0  0  0  0  0  0  0
   13.4285  -22.9311  -20.3314 C   0  0  0  0  0  0  0  0  0  0  0  0
   13.3861  -22.2216  -21.5368 C   0  0  0  0  0  0  0  0  0  0  0  0
   13.6360  -20.8464  -21.5570 C   0  0  0  0  0  0  0  0  0  0  0  0
   15.2007  -18.2416  -19.7718 C   0  0  0  0  0  0  0  0  0  0  0  0
   14.1534  -18.8171  -20.5421 O   0  0  0  0  0  0  0  0  0  0  0  0
    8.4616  -25.0508  -20.2895 N   0  0  0  0  0  0  0  0  0  0  0  0
    8.0140  -25.3933  -19.4823 H   0  0  0  0  0  0  0  0  0  0  0  0
    7.5805  -24.4359  -21.1966 C   0  0  0  0  0  0  0  0  0  0  0  0
    6.2838  -24.9486  -21.3277 C   0  0  0  0  0  0  0  0  0  0  0  0
    5.3595  -24.3782  -22.2142 C   0  0  0  0  0  0  0  0  0  0  0  0
    5.6834  -23.2682  -23.0059 C   0  0  0  0  0  0  0  0  0  0  0  0
    6.9858  -22.7726  -22.8836 C   0  0  0  0  0  0  0  0  0  0  0  0
    7.9135  -23.3411  -21.9935 C   0  0  0  0  0  0  0  0  0  0  0  0
    4.7250  -22.7405  -23.8853 N   0  0  0  0  0  0  0  0  0  0  0  0
    3.4911  -23.5221  -24.1144 C   0  0  0  0  0  0  0  0  0  0  0  0
    2.4632  -22.6902  -24.9165 C   0  0  0  0  0  0  0  0  0  0  0  0
    3.0046  -22.2143  -26.2090 N   0  0  0  0  0  0  0  0  0  0  0  0
    2.0176  -21.3984  -26.9118 C   0  0  0  0  0  0  0  0  0  0  0  0
    4.2379  -21.4374  -25.9541 C   0  0  0  0  0  0  0  0  0  0  0  0
    5.2997  -22.2311  -25.1549 C   0  0  0  0  0  0  0  0  0  0  0  0
 17 18  1  0
 18 11  1  0
 11 12  2  0
 12 13  1  0
 13 14  2  0
 14  1  1  0
  1  2  2  0
  2  3  1  0
  3  4  1  0
  3  5  2  0
  5  6  1  0
  6  7  2  0
  7  8  1  0
  8 19  1  0
 19 21  1  0
 21 22  2  0
 22 23  1  0
 23 24  2  0
 24 27  1  0
 27 28  1  0
 28 29  1  0
 29 30  1  0
 30 31  1  0
 30 32  1  0
 32 33  1  0
 24 25  1  0
 25 26  2  0
  8  9  2  0
  9 10  1  0
 14 15  1  0
 15 16  2  0
 16 11  1  0
 10  1  1  0
 10  6  1  0
 26 21  1  0
 33 27  1  0
 19 20  1  0
M  END
> <minimizedAffinity>
-7.16501

> <CNNscore>
0.6005368233

> <CNNaffinity>
6.9220576286

> <CNN_VS>
4.1569504738

> <CNNaffinity_variance>
0.0837208256

$$$$



 33 37  0  0  0  0  0  0  0  0999 V2000
   12.8437  -25.5411  -20.5543 C   0  0  0  0  0  0  0  0  0  0  0  0
   13.4063  -26.7004  -20.1448 C   0  0  0  0  0  0  0  0  0  0  0  0
   12.5659  -27.7898  -19.6620 C   0  0  0  0  0  0  0  0  0  0  0  0
   13.4219  -29.3526  -19.1049 Br  0  0  0  0  0  0  0  0  0  0  0  0
   11.2259  -27.6649  -19.6237 C   0  0  0  0  0  0  0  0  0  0  0  0
   10.6173  -26.4569  -20.0564 C   0  0  0  0  0  0  0  0  0  0  0  0
    9.3600  -26.0911  -20.1189 N   0  0  0  0  0  0  0  0  0  0  0  0
    9.4172  -24.8218  -20.6137 C   0  0  0  0  0  0  0  0  0  0  0  0
   10.6494  -24.3788  -20.8666 N   0  0  0  0  0  0  0  0  0  0  0  0
   11.4382  -25.4233  -20.5114 N   0  0  0  0  0  0  0  0  0  0  0  0
   15.3372  -22.3530  -21.9926 C   0  0  0  0  0  0  0  0  0  0  0  0
   14.3194  -22.8648  -22.7962 C   0  0  0  0  0  0  0  0  0  0  0  0
   13.5090  -23.9071  -22.3282 C   0  0  0  0  0  0  0  0  0  0  0  0
   13.7046  -24.4510  -21.0507 C   0  0  0  0  0  0  0  0  0  0  0  0
   14.7305  -23.9346  -20.2514 C   0  0  0  0  0  0  0  0  0  0  0  0
   15.5371  -22.8938  -20.7210 C   0  0  0  0  0  0  0  0  0  0  0  0
   17.4207  -21.7131  -22.9416 C   0  0  0  0  0  0  0  0  0  0  0  0
   16.1947  -21.3413  -22.3250 O   0  0  0  0  0  0  0  0  0  0  0  0
    8.3220  -24.0719  -20.8300 N   0  0  0  0  0  0  0  0  0  0  0  0
    8.4578  -23.3689  -21.5057 H   0  0  0  0  0  0  0  0  0  0  0  0
    7.0232  -24.0834  -20.2914 C   0  0  0  0  0  0  0  0  0  0  0  0
    6.0736  -24.9525  -20.8431 C   0  0  0  0  0  0  0  0  0  0  0  0
    4.7629  -25.0106  -20.3487 C   0  0  0  0  0  0  0  0  0  0  0  0
    4.3408  -24.2098  -19.2790 C   0  0  0  0  0  0  0  0  0  0  0  0
    5.2890  -23.3309  -18.7447 C   0  0  0  0  0  0  0  0  0  0  0  0
    6.6043  -23.2727  -19.2369 C   0  0  0  0  0  0  0  0  0  0  0  0
    3.0147  -24.2986  -18.8276 N   0  0  0  0  0  0  0  0  0  0  0  0
    2.7873  -24.4653  -17.3762 C   0  0  0  0  0  0  0  0  0  0  0  0
    1.2851  -24.3117  -17.0415 C   0  0  0  0  0  0  0  0  0  0  0  0
    0.4367  -25.2608  -17.7960 N   0  0  0  0  0  0  0  0  0  0  0  0
   -0.9747  -25.0515  -17.4824 C   0  0  0  0  0  0  0  0  0  0  0  0
    0.6827  -25.0761  -19.2434 C   0  0  0  0  0  0  0  0  0  0  0  0
    2.1749  -25.2237  -19.6279 C   0  0  0  0  0  0  0  0  0  0  0  0
 17 18  1  0
 18 11  1  0
 11 12  2  0
 12 13  1  0
 13 14  2  0
 14  1  1  0
  1  2  2  0
  2  3  1  0
  3  4  1  0
  3  5  2  0
  5  6  1  0
  6  7  2  0
  7  8  1  0
  8 19  1  0
 19 21  1  0
 21 22  2  0
 22 23  1  0
 23 24  2  0
 24 27  1  0
 27 28  1  0
 28 29  1  0
 29 30  1  0
 30 31  1  0
 30 32  1  0
 32 33  1  0
 24 25  1  0
 25 26  2  0
  8  9  2  0
  9 10  1  0
 14 15  1  0
 15 16  2  0
 16 11  1  0
 10  1  1  0
 10  6  1  0
 26 21  1  0
 33 27  1  0
 19 20  1  0
M  END
> <minimizedAffinity>
-8.33804

> <CNNscore>
0.5575260520

> <CNNaffinity>
6.7058200836

> <CNN_VS>
3.7386693954

> <CNNaffinity_variance>
0.2627267241

$$$$



 33 37  0  0  0  0  0  0  0  0999 V2000
   12.9649  -25.3253  -20.6921 C   0  0  0  0  0  0  0  0  0  0  0  0
   13.4272  -26.5183  -20.2546 C   0  0  0  0  0  0  0  0  0  0  0  0
   12.4956  -27.5285  -19.7671 C   0  0  0  0  0  0  0  0  0  0  0  0
   13.2160  -29.1443  -19.1706 Br  0  0  0  0  0  0  0  0  0  0  0  0
   11.1694  -27.2967  -19.7519 C   0  0  0  0  0  0  0  0  0  0  0  0
   10.6656  -26.0520  -20.2142 C   0  0  0  0  0  0  0  0  0  0  0  0
    9.4425  -25.5884  -20.3025 N   0  0  0  0  0  0  0  0  0  0  0  0
    9.6080  -24.3367  -20.8174 C   0  0  0  0  0  0  0  0  0  0  0  0
   10.8751  -23.9978  -21.0582 N   0  0  0  0  0  0  0  0  0  0  0  0
   11.5728  -25.0953  -20.6733 N   0  0  0  0  0  0  0  0  0  0  0  0
   15.7494  -22.4018  -22.1582 C   0  0  0  0  0  0  0  0  0  0  0  0
   15.9426  -22.9902  -20.9092 C   0  0  0  0  0  0  0  0  0  0  0  0
   15.0321  -23.9407  -20.4299 C   0  0  0  0  0  0  0  0  0  0  0  0
   13.9172  -24.3162  -21.1929 C   0  0  0  0  0  0  0  0  0  0  0  0
   13.7281  -23.7185  -22.4438 C   0  0  0  0  0  0  0  0  0  0  0  0
   14.6389  -22.7708  -22.9198 C   0  0  0  0  0  0  0  0  0  0  0  0
   17.8000  -21.9246  -23.2620 C   0  0  0  0  0  0  0  0  0  0  0  0
   16.5582  -21.4669  -22.7423 O   0  0  0  0  0  0  0  0  0  0  0  0
    8.5794  -23.5060  -21.0634 N   0  0  0  0  0  0  0  0  0  0  0  0
    8.7091  -22.6038  -20.6915 H   0  0  0  0  0  0  0  0  0  0  0  0
    7.3570  -23.6586  -21.7414 C   0  0  0  0  0  0  0  0  0  0  0  0
    7.1626  -22.9649  -22.9424 C   0  0  0  0  0  0  0  0  0  0  0  0
    5.9662  -23.0772  -23.6648 C   0  0  0  0  0  0  0  0  0  0  0  0
    4.9121  -23.8898  -23.2264 C   0  0  0  0  0  0  0  0  0  0  0  0
    5.1058  -24.5655  -22.0169 C   0  0  0  0  0  0  0  0  0  0  0  0
    6.3054  -24.4565  -21.2922 C   0  0  0  0  0  0  0  0  0  0  0  0
    3.7308  -23.9602  -23.9812 N   0  0  0  0  0  0  0  0  0  0  0  0
    3.1274  -22.6915  -24.4423 C   0  0  0  0  0  0  0  0  0  0  0  0
    1.9795  -22.9685  -25.4411 C   0  0  0  0  0  0  0  0  0  0  0  0
    0.9326  -23.8460  -24.8719 N   0  0  0  0  0  0  0  0  0  0  0  0
   -0.1073  -24.1160  -25.8617 C   0  0  0  0  0  0  0  0  0  0  0  0
    1.5602  -25.1064  -24.4170 C   0  0  0  0  0  0  0  0  0  0  0  0
    2.7152  -24.8797  -23.4116 C   0  0  0  0  0  0  0  0  0  0  0  0
 17 18  1  0
 18 11  1  0
 11 12  2  0
 12 13  1  0
 13 14  2  0
 14  1  1  0
  1  2  2  0
  2  3  1  0
  3  4  1  0
  3  5  2  0
  5  6  1  0
  6  7  2  0
  7  8  1  0
  8 19  1  0
 19 21  1  0
 21 22  2  0
 22 23  1  0
 23 24  2  0
 24 27  1  0
 27 28  1  0
 28 29  1  0
 29 30  1  0
 30 31  1  0
 30 32  1  0
 32 33  1  0
 24 25  1  0
 25 26  2  0
  8  9  2  0
  9 10  1  0
 14 15  1  0
 15 16  2  0
 16 11  1  0
 10  1  1  0
 10  6  1  0
 26 21  1  0
 33 27  1  0
 19 20  1  0
M  END
> <minimizedAffinity>
-7.99794

> <CNNscore>
0.5258545876

> <CNNaffinity>
6.6731467247

> <CNN_VS>
3.5091047287

> <CNNaffinity_variance>
0.2271065712

$$$$



 33 37  0  0  0  0  0  0  0  0999 V2000
   17.6475  -26.5270  -20.2638 C   0  0  0  0  0  0  0  0  0  0  0  0
   18.5168  -27.3595  -19.6476 C   0  0  0  0  0  0  0  0  0  0  0  0
   19.9360  -27.0286  -19.5998 C   0  0  0  0  0  0  0  0  0  0  0  0
   21.0707  -28.2364  -18.7399 Br  0  0  0  0  0  0  0  0  0  0  0  0
   20.4011  -25.8941  -20.1559 C   0  0  0  0  0  0  0  0  0  0  0  0
   19.5014  -25.0046  -20.8012 C   0  0  0  0  0  0  0  0  0  0  0  0
   19.6972  -23.8587  -21.4070 N   0  0  0  0  0  0  0  0  0  0  0  0
   18.4501  -23.4954  -21.8217 C   0  0  0  0  0  0  0  0  0  0  0  0
   17.4845  -24.3575  -21.5008 N   0  0  0  0  0  0  0  0  0  0  0  0
   18.1468  -25.3400  -20.8409 N   0  0  0  0  0  0  0  0  0  0  0  0
   13.4716  -27.5264  -20.3760 C   0  0  0  0  0  0  0  0  0  0  0  0
   13.9001  -26.2580  -20.7651 C   0  0  0  0  0  0  0  0  0  0  0  0
   15.2617  -25.9314  -20.7246 C   0  0  0  0  0  0  0  0  0  0  0  0
   16.2128  -26.8682  -20.2956 C   0  0  0  0  0  0  0  0  0  0  0  0
   15.7745  -28.1378  -19.9033 C   0  0  0  0  0  0  0  0  0  0  0  0
   14.4152  -28.4610  -19.9456 C   0  0  0  0  0  0  0  0  0  0  0  0
   11.4260  -27.7448  -19.1850 C   0  0  0  0  0  0  0  0  0  0  0  0
   12.1794  -27.9733  -20.3689 O   0  0  0  0  0  0  0  0  0  0  0  0
   18.2079  -22.3604  -22.5013 N   0  0  0  0  0  0  0  0  0  0  0  0
   18.7438  -22.2758  -23.3228 H   0  0  0  0  0  0  0  0  0  0  0  0
   17.3481  -21.2696  -22.2821 C   0  0  0  0  0  0  0  0  0  0  0  0
   16.0353  -21.3399  -22.7651 C   0  0  0  0  0  0  0  0  0  0  0  0
   15.1309  -20.2853  -22.5768 C   0  0  0  0  0  0  0  0  0  0  0  0
   15.4915  -19.1157  -21.8943 C   0  0  0  0  0  0  0  0  0  0  0  0
   16.8094  -19.0445  -21.4307 C   0  0  0  0  0  0  0  0  0  0  0  0
   17.7173  -20.1016  -21.6159 C   0  0  0  0  0  0  0  0  0  0  0  0
   14.5517  -18.0845  -21.7412 N   0  0  0  0  0  0  0  0  0  0  0  0
   14.1930  -17.6734  -20.3669 C   0  0  0  0  0  0  0  0  0  0  0  0
   13.3341  -16.3875  -20.3923 C   0  0  0  0  0  0  0  0  0  0  0  0
   12.1086  -16.5408  -21.2077 N   0  0  0  0  0  0  0  0  0  0  0  0
   11.3516  -15.2918  -21.2396 C   0  0  0  0  0  0  0  0  0  0  0  0
   12.4928  -16.9533  -22.5759 C   0  0  0  0  0  0  0  0  0  0  0  0
   13.3529  -18.2400  -22.6016 C   0  0  0  0  0  0  0  0  0  0  0  0
 17 18  1  0
 18 11  1  0
 11 12  2  0
 12 13  1  0
 13 14  2  0
 14  1  1  0
  1  2  2  0
  2  3  1  0
  3  4  1  0
  3  5  2  0
  5  6  1  0
  6  7  2  0
  7  8  1  0
  8 19  1  0
 19 21  1  0
 21 22  2  0
 22 23  1  0
 23 24  2  0
 24 27  1  0
 27 28  1  0
 28 29  1  0
 29 30  1  0
 30 31  1  0
 30 32  1  0
 32 33  1  0
 24 25  1  0
 25 26  2  0
  8  9  2  0
  9 10  1  0
 14 15  1  0
 15 16  2  0
 16 11  1  0
 10  1  1  0
 10  6  1  0
 26 21  1  0
 33 27  1  0
 19 20  1  0
M  END
> <minimizedAffinity>
-8.56184

> <CNNscore>
0.4830144644

> <CNNaffinity>
6.6439480782

> <CNN_VS>
3.2091231346

> <CNNaffinity_variance>
0.1034986153

$$$$



 33 37  0  0  0  0  0  0  0  0999 V2000
   13.1514  -25.7426  -20.5776 C   0  0  0  0  0  0  0  0  0  0  0  0
   13.8253  -26.8452  -20.1795 C   0  0  0  0  0  0  0  0  0  0  0  0
   13.0999  -27.9908  -19.6434 C   0  0  0  0  0  0  0  0  0  0  0  0
   14.1058  -29.4691  -19.1062 Br  0  0  0  0  0  0  0  0  0  0  0  0
   11.7574  -27.9747  -19.5440 C   0  0  0  0  0  0  0  0  0  0  0  0
   11.0327  -26.8277  -19.9637 C   0  0  0  0  0  0  0  0  0  0  0  0
    9.7481  -26.5665  -19.9721 N   0  0  0  0  0  0  0  0  0  0  0  0
    9.6784  -25.3054  -20.4859 C   0  0  0  0  0  0  0  0  0  0  0  0
   10.8572  -24.7681  -20.8022 N   0  0  0  0  0  0  0  0  0  0  0  0
   11.7444  -25.7388  -20.4705 N   0  0  0  0  0  0  0  0  0  0  0  0
   15.3336  -22.4130  -22.1906 C   0  0  0  0  0  0  0  0  0  0  0  0
   15.7357  -23.0010  -20.9921 C   0  0  0  0  0  0  0  0  0  0  0  0
   15.0214  -24.0844  -20.4646 C   0  0  0  0  0  0  0  0  0  0  0  0
   13.8965  -24.5947  -21.1282 C   0  0  0  0  0  0  0  0  0  0  0  0
   13.4970  -23.9969  -22.3286 C   0  0  0  0  0  0  0  0  0  0  0  0
   14.2124  -22.9164  -22.8529 C   0  0  0  0  0  0  0  0  0  0  0  0
   17.3181  -21.1504  -22.5348 C   0  0  0  0  0  0  0  0  0  0  0  0
   15.9391  -21.3568  -22.8128 O   0  0  0  0  0  0  0  0  0  0  0  0
    8.5166  -24.6509  -20.6606 N   0  0  0  0  0  0  0  0  0  0  0  0
    7.7266  -25.1886  -20.4240 H   0  0  0  0  0  0  0  0  0  0  0  0
    8.1960  -23.3580  -21.1110 C   0  0  0  0  0  0  0  0  0  0  0  0
    8.6284  -22.2575  -20.3604 C   0  0  0  0  0  0  0  0  0  0  0  0
    8.3411  -20.9442  -20.7585 C   0  0  0  0  0  0  0  0  0  0  0  0
    7.6152  -20.6679  -21.9249 C   0  0  0  0  0  0  0  0  0  0  0  0
    7.1707  -21.7719  -22.6600 C   0  0  0  0  0  0  0  0  0  0  0  0
    7.4597  -23.0895  -22.2643 C   0  0  0  0  0  0  0  0  0  0  0  0
    7.3455  -19.3355  -22.2743 N   0  0  0  0  0  0  0  0  0  0  0  0
    8.4693  -18.5062  -22.7597 C   0  0  0  0  0  0  0  0  0  0  0  0
    7.9496  -17.1577  -23.3107 C   0  0  0  0  0  0  0  0  0  0  0  0
    7.1622  -16.4027  -22.3106 N   0  0  0  0  0  0  0  0  0  0  0  0
    6.6556  -15.1592  -22.8861 C   0  0  0  0  0  0  0  0  0  0  0  0
    6.0462  -17.2526  -21.8397 C   0  0  0  0  0  0  0  0  0  0  0  0
    6.5183  -18.6146  -21.2755 C   0  0  0  0  0  0  0  0  0  0  0  0
 17 18  1  0
 18 11  1  0
 11 12  2  0
 12 13  1  0
 13 14  2  0
 14  1  1  0
  1  2  2  0
  2  3  1  0
  3  4  1  0
  3  5  2  0
  5  6  1  0
  6  7  2  0
  7  8  1  0
  8 19  1  0
 19 21  1  0
 21 22  2  0
 22 23  1  0
 23 24  2  0
 24 27  1  0
 27 28  1  0
 28 29  1  0
 29 30  1  0
 30 31  1  0
 30 32  1  0
 32 33  1  0
 24 25  1  0
 25 26  2  0
  8  9  2  0
  9 10  1  0
 14 15  1  0
 15 16  2  0
 16 11  1  0
 10  1  1  0
 10  6  1  0
 26 21  1  0
 33 27  1  0
 19 20  1  0
M  END
> <minimizedAffinity>
-7.81253

> <CNNscore>
0.4543222785

> <CNNaffinity>
6.4862823486

> <CNN_VS>
2.9468624592

> <CNNaffinity_variance>
0.0921745002

$$$$



 33 37  0  0  0  0  0  0  0  0999 V2000
   13.9927  -25.1344  -20.9921 C   0  0  0  0  0  0  0  0  0  0  0  0
   14.5321  -26.3037  -20.5797 C   0  0  0  0  0  0  0  0  0  0  0  0
   13.6710  -27.3707  -20.0837 C   0  0  0  0  0  0  0  0  0  0  0  0
   14.4958  -28.9491  -19.5233 Br  0  0  0  0  0  0  0  0  0  0  0  0
   12.3345  -27.2153  -20.0359 C   0  0  0  0  0  0  0  0  0  0  0  0
   11.7501  -25.9965  -20.4715 C   0  0  0  0  0  0  0  0  0  0  0  0
   10.5009  -25.6026  -20.5267 N   0  0  0  0  0  0  0  0  0  0  0  0
   10.5830  -24.3380  -21.0299 C   0  0  0  0  0  0  0  0  0  0  0  0
   11.8229  -23.9246  -21.2950 N   0  0  0  0  0  0  0  0  0  0  0  0
   12.5906  -24.9846  -20.9393 N   0  0  0  0  0  0  0  0  0  0  0  0
   16.5521  -22.0138  -22.4622 C   0  0  0  0  0  0  0  0  0  0  0  0
   15.2546  -22.1473  -22.9545 C   0  0  0  0  0  0  0  0  0  0  0  0
   14.4217  -23.1675  -22.4776 C   0  0  0  0  0  0  0  0  0  0  0  0
   14.8742  -24.0671  -21.5018 C   0  0  0  0  0  0  0  0  0  0  0  0
   16.1788  -23.9290  -21.0152 C   0  0  0  0  0  0  0  0  0  0  0  0
   17.0073  -22.9092  -21.4926 C   0  0  0  0  0  0  0  0  0  0  0  0
   18.4861  -20.7496  -21.9032 C   0  0  0  0  0  0  0  0  0  0  0  0
   17.4632  -21.0664  -22.8386 O   0  0  0  0  0  0  0  0  0  0  0  0
    9.5034  -23.5648  -21.2425 N   0  0  0  0  0  0  0  0  0  0  0  0
    9.6592  -22.8500  -21.9014 H   0  0  0  0  0  0  0  0  0  0  0  0
    8.1983  -23.5653  -20.7192 C   0  0  0  0  0  0  0  0  0  0  0  0
    7.5616  -24.7934  -20.5002 C   0  0  0  0  0  0  0  0  0  0  0  0
    6.2615  -24.8589  -19.9795 C   0  0  0  0  0  0  0  0  0  0  0  0
    5.5393  -23.7046  -19.6483 C   0  0  0  0  0  0  0  0  0  0  0  0
    6.1741  -22.4810  -19.8867 C   0  0  0  0  0  0  0  0  0  0  0  0
    7.4785  -22.4127  -20.4062 C   0  0  0  0  0  0  0  0  0  0  0  0
    4.2367  -23.8240  -19.1392 N   0  0  0  0  0  0  0  0  0  0  0  0
    3.1790  -22.9839  -19.7405 C   0  0  0  0  0  0  0  0  0  0  0  0
    1.7862  -23.4117  -19.2216 C   0  0  0  0  0  0  0  0  0  0  0  0
    1.6913  -23.3603  -17.7456 N   0  0  0  0  0  0  0  0  0  0  0  0
    0.3765  -23.8131  -17.2980 C   0  0  0  0  0  0  0  0  0  0  0  0
    2.7592  -24.2061  -17.1678 C   0  0  0  0  0  0  0  0  0  0  0  0
    4.1744  -23.8132  -17.6568 C   0  0  0  0  0  0  0  0  0  0  0  0
 17 18  1  0
 18 11  1  0
 11 12  2  0
 12 13  1  0
 13 14  2  0
 14  1  1  0
  1  2  2  0
  2  3  1  0
  3  4  1  0
  3  5  2  0
  5  6  1  0
  6  7  2  0
  7  8  1  0
  8 19  1  0
 19 21  1  0
 21 22  2  0
 22 23  1  0
 23 24  2  0
 24 27  1  0
 27 28  1  0
 28 29  1  0
 29 30  1  0
 30 31  1  0
 30 32  1  0
 32 33  1  0
 24 25  1  0
 25 26  2  0
  8  9  2  0
  9 10  1  0
 14 15  1  0
 15 16  2  0
 16 11  1  0
 10  1  1  0
 10  6  1  0
 26 21  1  0
 33 27  1  0
 19 20  1  0
M  END
> <minimizedAffinity>
-8.51147

> <CNNscore>
0.4078439772

> <CNNaffinity>
6.9611659050

> <CNN_VS>
2.8390696049

> <CNNaffinity_variance>
0.0844622254

$$$$
