


 25 26  0  0  0  0  0  0  0  0999 V2000
   32.3037   22.6341   26.6108 C   0  0  0  0  0  0  0  0  0  0  0  0
   33.5750   23.1466   27.3108 C   0  0  0  0  0  0  0  0  0  0  0  0
   33.5605   24.5803   27.3141 O   0  0  0  0  0  0  0  0  0  0  0  0
   33.6751   22.5576   28.7309 C   0  0  0  0  0  0  0  0  0  0  0  0
   33.6859   21.1331   28.6541 O   0  0  0  0  0  0  0  0  0  0  0  0
   32.4376   20.6334   28.1514 C   0  0  0  0  0  0  0  0  0  0  0  0
   32.2173   21.0958   26.6972 C   0  0  0  0  0  0  0  0  0  0  0  0
   30.9315   20.6491   26.2512 O   0  0  0  0  0  0  0  0  0  0  0  0
   32.7766   24.8947   27.7911 H   0  0  0  0  0  0  0  0  0  0  0  0
   30.2425   21.0288   26.8188 H   0  0  0  0  0  0  0  0  0  0  0  0
   34.9175   22.8995   29.3707 N   0  0  0  0  0  0  0  0  0  0  0  0
   35.0943   24.0997   30.0179 C   0  0  0  0  0  0  0  0  0  0  0  0
   34.1996   24.9183   30.1950 O   0  0  0  0  0  0  0  0  0  0  0  0
   35.6620   22.2560   29.3444 H   0  0  0  0  0  0  0  0  0  0  0  0
   36.4546   24.3519   30.5677 C   0  0  0  0  0  0  0  0  0  0  0  0
   36.7940   25.6608   30.9322 C   0  0  0  0  0  0  0  0  0  0  0  0
   38.0591   25.9390   31.4523 C   0  0  0  0  0  0  0  0  0  0  0  0
   38.9924   24.9135   31.6002 C   0  0  0  0  0  0  0  0  0  0  0  0
   38.6669   23.6110   31.2213 C   0  0  0  0  0  0  0  0  0  0  0  0
   37.4014   23.3278   30.7014 C   0  0  0  0  0  0  0  0  0  0  0  0
   32.4754   19.1056   28.2738 C   0  0  0  0  0  0  0  0  0  0  0  0
   33.2733   18.5406   27.2347 O   0  0  0  0  0  0  0  0  0  0  0  0
   32.8930   18.7720   26.3729 H   0  0  0  0  0  0  0  0  0  0  0  0
   33.4980   22.6035   24.5223 C   0  0  0  0  0  0  0  0  0  0  0  0
   32.3928   23.1227   25.2513 O   0  0  0  0  0  0  0  0  0  0  0  0
 24 25  1  0
  1 25  1  0
  1  2  1  0
  2  3  1  0
  2  4  1  0
  4 11  1  0
 11 12  1  0
 12 13  2  0
 12 15  1  0
 15 16  2  0
 16 17  1  0
 17 18  2  0
 18 19  1  0
 19 20  2  0
  4  5  1  0
  5  6  1  0
  6 21  1  0
 21 22  1  0
  6  7  1  0
  7  8  1  0
  7  1  1  0
 20 15  1  0
  3  9  1  0
 11 14  1  0
 22 23  1  0
  8 10  1  0
M  END
> <minimizedAffinity>
-7.84058

> <CNNscore>
0.7563763261

> <CNNaffinity>
4.2151837349

> <CNN_VS>
3.1882650852

> <CNNaffinity_variance>
0.5904580951

$$$$



 25 26  0  0  0  0  0  0  0  0999 V2000
   33.2491   23.0216   25.8198 C   0  0  0  0  0  0  0  0  0  0  0  0
   33.8886   23.6527   27.0695 C   0  0  0  0  0  0  0  0  0  0  0  0
   33.8806   25.0795   26.9281 O   0  0  0  0  0  0  0  0  0  0  0  0
   33.1515   23.1847   28.3388 C   0  0  0  0  0  0  0  0  0  0  0  0
   33.1988   21.7610   28.4173 O   0  0  0  0  0  0  0  0  0  0  0  0
   32.4648   21.1596   27.3404 C   0  0  0  0  0  0  0  0  0  0  0  0
   33.1226   21.4926   25.9864 C   0  0  0  0  0  0  0  0  0  0  0  0
   32.3254   20.9466   24.9290 O   0  0  0  0  0  0  0  0  0  0  0  0
   32.9662   25.3903   26.8376 H   0  0  0  0  0  0  0  0  0  0  0  0
   31.4369   21.3345   24.9605 H   0  0  0  0  0  0  0  0  0  0  0  0
   33.8013   23.6397   29.5390 N   0  0  0  0  0  0  0  0  0  0  0  0
   33.1546   24.4306   30.4593 C   0  0  0  0  0  0  0  0  0  0  0  0
   31.9660   24.7222   30.3937 O   0  0  0  0  0  0  0  0  0  0  0  0
   34.7353   23.3774   29.7062 H   0  0  0  0  0  0  0  0  0  0  0  0
   33.9720   24.8906   31.6154 C   0  0  0  0  0  0  0  0  0  0  0  0
   35.3662   24.9016   31.4834 C   0  0  0  0  0  0  0  0  0  0  0  0
   36.1683   25.3266   32.5438 C   0  0  0  0  0  0  0  0  0  0  0  0
   35.5816   25.7318   33.7422 C   0  0  0  0  0  0  0  0  0  0  0  0
   34.1943   25.7052   33.8864 C   0  0  0  0  0  0  0  0  0  0  0  0
   33.3876   25.2817   32.8272 C   0  0  0  0  0  0  0  0  0  0  0  0
   32.4191   19.6504   27.6063 C   0  0  0  0  0  0  0  0  0  0  0  0
   33.4792   18.9893   26.9172 O   0  0  0  0  0  0  0  0  0  0  0  0
   33.3868   19.1376   25.9631 H   0  0  0  0  0  0  0  0  0  0  0  0
   35.3012   24.0629   25.1171 C   0  0  0  0  0  0  0  0  0  0  0  0
   34.1058   23.4041   24.7177 O   0  0  0  0  0  0  0  0  0  0  0  0
 24 25  1  0
  1 25  1  0
  1  2  1  0
  2  3  1  0
  2  4  1  0
  4 11  1  0
 11 12  1  0
 12 13  2  0
 12 15  1  0
 15 16  2  0
 16 17  1  0
 17 18  2  0
 18 19  1  0
 19 20  2  0
  4  5  1  0
  5  6  1  0
  6 21  1  0
 21 22  1  0
  6  7  1  0
  7  8  1  0
  7  1  1  0
 20 15  1  0
  3  9  1  0
 11 14  1  0
 22 23  1  0
  8 10  1  0
M  END
> <minimizedAffinity>
-9.18798

> <CNNscore>
0.7401381135

> <CNNaffinity>
4.4200329781

> <CNN_VS>
3.2714347839

> <CNNaffinity_variance>
0.4016683996

$$$$



 25 26  0  0  0  0  0  0  0  0999 V2000
   31.9510   22.5500   25.7417 C   0  0  0  0  0  0  0  0  0  0  0  0
   33.1806   22.4573   26.6627 C   0  0  0  0  0  0  0  0  0  0  0  0
   34.2287   21.7625   25.9738 O   0  0  0  0  0  0  0  0  0  0  0  0
   33.6109   23.8643   27.1196 C   0  0  0  0  0  0  0  0  0  0  0  0
   32.5255   24.4962   27.7961 O   0  0  0  0  0  0  0  0  0  0  0  0
   31.4282   24.7351   26.9020 C   0  0  0  0  0  0  0  0  0  0  0  0
   30.8430   23.4011   26.3970 C   0  0  0  0  0  0  0  0  0  0  0  0
   29.8045   23.6720   25.4484 O   0  0  0  0  0  0  0  0  0  0  0  0
   34.4619   22.2473   25.1667 H   0  0  0  0  0  0  0  0  0  0  0  0
   30.1716   24.1677   24.6998 H   0  0  0  0  0  0  0  0  0  0  0  0
   34.6702   23.8158   28.0918 N   0  0  0  0  0  0  0  0  0  0  0  0
   34.4239   23.9278   29.4399 C   0  0  0  0  0  0  0  0  0  0  0  0
   33.3004   23.9705   29.9275 O   0  0  0  0  0  0  0  0  0  0  0  0
   35.5978   23.6990   27.7830 H   0  0  0  0  0  0  0  0  0  0  0  0
   35.6211   23.9380   30.3247 C   0  0  0  0  0  0  0  0  0  0  0  0
   36.8067   23.3643   29.8485 C   0  0  0  0  0  0  0  0  0  0  0  0
   37.9517   23.3544   30.6468 C   0  0  0  0  0  0  0  0  0  0  0  0
   37.9136   23.9074   31.9263 C   0  0  0  0  0  0  0  0  0  0  0  0
   36.7306   24.4635   32.4135 C   0  0  0  0  0  0  0  0  0  0  0  0
   35.5826   24.4768   31.6175 C   0  0  0  0  0  0  0  0  0  0  0  0
   30.3925   25.5703   27.6637 C   0  0  0  0  0  0  0  0  0  0  0  0
   30.8891   25.9279   28.9526 O   0  0  0  0  0  0  0  0  0  0  0  0
   31.0729   25.1236   29.4628 H   0  0  0  0  0  0  0  0  0  0  0  0
   30.9372   20.5539   26.6232 C   0  0  0  0  0  0  0  0  0  0  0  0
   31.5487   21.1803   25.5025 O   0  0  0  0  0  0  0  0  0  0  0  0
 24 25  1  0
  1 25  1  0
  1  2  1  0
  2  3  1  0
  2  4  1  0
  4 11  1  0
 11 12  1  0
 12 13  2  0
 12 15  1  0
 15 16  2  0
 16 17  1  0
 17 18  2  0
 18 19  1  0
 19 20  2  0
  4  5  1  0
  5  6  1  0
  6 21  1  0
 21 22  1  0
  6  7  1  0
  7  8  1  0
  7  1  1  0
 20 15  1  0
  3  9  1  0
 11 14  1  0
 22 23  1  0
  8 10  1  0
M  END
> <minimizedAffinity>
-8.55885

> <CNNscore>
0.3474634886

> <CNNaffinity>
4.0242519379

> <CNN_VS>
1.3982806206

> <CNNaffinity_variance>
0.7488815188

$$$$



 25 26  0  0  0  0  0  0  0  0999 V2000
   32.7660   25.8134   29.5626 C   0  0  0  0  0  0  0  0  0  0  0  0
   31.9524   24.6663   28.9373 C   0  0  0  0  0  0  0  0  0  0  0  0
   31.0570   25.2088   27.9577 O   0  0  0  0  0  0  0  0  0  0  0  0
   32.8980   23.6045   28.3440 C   0  0  0  0  0  0  0  0  0  0  0  0
   33.7569   23.1080   29.3690 O   0  0  0  0  0  0  0  0  0  0  0  0
   34.6364   24.1359   29.8491 C   0  0  0  0  0  0  0  0  0  0  0  0
   33.8315   25.2596   30.5319 C   0  0  0  0  0  0  0  0  0  0  0  0
   34.7266   26.3051   30.9289 O   0  0  0  0  0  0  0  0  0  0  0  0
   31.5678   25.6599   27.2674 H   0  0  0  0  0  0  0  0  0  0  0  0
   35.1767   26.6598   30.1463 H   0  0  0  0  0  0  0  0  0  0  0  0
   32.1834   22.4483   27.8725 N   0  0  0  0  0  0  0  0  0  0  0  0
   32.8353   21.3498   27.3636 C   0  0  0  0  0  0  0  0  0  0  0  0
   34.0537   21.2175   27.3650 O   0  0  0  0  0  0  0  0  0  0  0  0
   31.1999   22.4435   27.9155 H   0  0  0  0  0  0  0  0  0  0  0  0
   31.9678   20.2582   26.8420 C   0  0  0  0  0  0  0  0  0  0  0  0
   31.4722   19.3109   27.7466 C   0  0  0  0  0  0  0  0  0  0  0  0
   30.6547   18.2722   27.2977 C   0  0  0  0  0  0  0  0  0  0  0  0
   30.3383   18.1703   25.9435 C   0  0  0  0  0  0  0  0  0  0  0  0
   30.8442   19.0999   25.0347 C   0  0  0  0  0  0  0  0  0  0  0  0
   31.6617   20.1418   25.4797 C   0  0  0  0  0  0  0  0  0  0  0  0
   35.6328   23.4729   30.8073 C   0  0  0  0  0  0  0  0  0  0  0  0
   36.7024   24.3664   31.1127 O   0  0  0  0  0  0  0  0  0  0  0  0
   37.1696   24.6026   30.2961 H   0  0  0  0  0  0  0  0  0  0  0  0
   30.4494   26.4125   29.8150 C   0  0  0  0  0  0  0  0  0  0  0  0
   31.7913   26.6621   30.2142 O   0  0  0  0  0  0  0  0  0  0  0  0
 24 25  1  0
  1 25  1  0
  1  2  1  0
  2  3  1  0
  2  4  1  0
  4 11  1  0
 11 12  1  0
 12 13  2  0
 12 15  1  0
 15 16  2  0
 16 17  1  0
 17 18  2  0
 18 19  1  0
 19 20  2  0
  4  5  1  0
  5  6  1  0
  6 21  1  0
 21 22  1  0
  6  7  1  0
  7  8  1  0
  7  1  1  0
 20 15  1  0
  3  9  1  0
 11 14  1  0
 22 23  1  0
  8 10  1  0
M  END
> <minimizedAffinity>
8.28173

> <CNNscore>
0.2978041470

> <CNNaffinity>
3.7790658474

> <CNN_VS>
1.1254215240

> <CNNaffinity_variance>
0.0023093643

$$$$



 25 26  0  0  0  0  0  0  0  0999 V2000
   37.6862   24.9111   31.5733 C   0  0  0  0  0  0  0  0  0  0  0  0
   38.5283   25.5656   32.6830 C   0  0  0  0  0  0  0  0  0  0  0  0
   39.8444   25.8269   32.1777 O   0  0  0  0  0  0  0  0  0  0  0  0
   37.8331   26.8409   33.1968 C   0  0  0  0  0  0  0  0  0  0  0  0
   36.5339   26.5097   33.6841 O   0  0  0  0  0  0  0  0  0  0  0  0
   35.6858   26.0484   32.6218 C   0  0  0  0  0  0  0  0  0  0  0  0
   36.2250   24.7286   32.0349 C   0  0  0  0  0  0  0  0  0  0  0  0
   35.4047   24.3359   30.9283 O   0  0  0  0  0  0  0  0  0  0  0  0
   39.7857   26.4257   31.4169 H   0  0  0  0  0  0  0  0  0  0  0  0
   35.4287   25.0261   30.2471 H   0  0  0  0  0  0  0  0  0  0  0  0
   38.5154   27.4088   34.3289 N   0  0  0  0  0  0  0  0  0  0  0  0
   38.1453   27.1172   35.6206 C   0  0  0  0  0  0  0  0  0  0  0  0
   37.2935   26.2869   35.9159 O   0  0  0  0  0  0  0  0  0  0  0  0
   39.2686   28.0236   34.1744 H   0  0  0  0  0  0  0  0  0  0  0  0
   38.8887   27.8356   36.6918 C   0  0  0  0  0  0  0  0  0  0  0  0
   40.2866   27.8793   36.6186 C   0  0  0  0  0  0  0  0  0  0  0  0
   41.0205   28.5436   37.6027 C   0  0  0  0  0  0  0  0  0  0  0  0
   40.3621   29.1568   38.6680 C   0  0  0  0  0  0  0  0  0  0  0  0
   38.9710   29.1006   38.7566 C   0  0  0  0  0  0  0  0  0  0  0  0
   38.2323   28.4379   37.7732 C   0  0  0  0  0  0  0  0  0  0  0  0
   34.2747   25.8911   33.2002 C   0  0  0  0  0  0  0  0  0  0  0  0
   34.2823   26.1271   34.6074 O   0  0  0  0  0  0  0  0  0  0  0  0
   34.8667   25.4848   35.0398 H   0  0  0  0  0  0  0  0  0  0  0  0
   37.7447   22.9185   30.2259 C   0  0  0  0  0  0  0  0  0  0  0  0
   38.3496   23.6588   31.2787 O   0  0  0  0  0  0  0  0  0  0  0  0
 24 25  1  0
  1 25  1  0
  1  2  1  0
  2  3  1  0
  2  4  1  0
  4 11  1  0
 11 12  1  0
 12 13  2  0
 12 15  1  0
 15 16  2  0
 16 17  1  0
 17 18  2  0
 18 19  1  0
 19 20  2  0
  4  5  1  0
  5  6  1  0
  6 21  1  0
 21 22  1  0
  6  7  1  0
  7  8  1  0
  7  1  1  0
 20 15  1  0
  3  9  1  0
 11 14  1  0
 22 23  1  0
  8 10  1  0
M  END
> <minimizedAffinity>
-9.22062

> <CNNscore>
0.2102464885

> <CNNaffinity>
4.2775750160

> <CNN_VS>
0.8993450999

> <CNNaffinity_variance>
0.1129211485

$$$$



 25 26  0  0  0  0  0  0  0  0999 V2000
   35.0585   25.7120   31.5247 C   0  0  0  0  0  0  0  0  0  0  0  0
   34.2685   24.7873   30.5815 C   0  0  0  0  0  0  0  0  0  0  0  0
   33.2507   25.5521   29.9222 O   0  0  0  0  0  0  0  0  0  0  0  0
   35.2233   24.1002   29.5865 C   0  0  0  0  0  0  0  0  0  0  0  0
   36.2061   23.3586   30.3070 O   0  0  0  0  0  0  0  0  0  0  0  0
   37.0559   24.2300   31.0679 C   0  0  0  0  0  0  0  0  0  0  0  0
   36.2451   24.9567   32.1595 C   0  0  0  0  0  0  0  0  0  0  0  0
   37.1014   25.8754   32.8485 O   0  0  0  0  0  0  0  0  0  0  0  0
   33.6629   26.2651   29.4097 H   0  0  0  0  0  0  0  0  0  0  0  0
   37.4511   26.5254   32.2192 H   0  0  0  0  0  0  0  0  0  0  0  0
   34.5468   23.1222   28.7769 N   0  0  0  0  0  0  0  0  0  0  0  0
   33.9387   23.4576   27.5902 C   0  0  0  0  0  0  0  0  0  0  0  0
   34.0085   24.5685   27.0771 O   0  0  0  0  0  0  0  0  0  0  0  0
   34.5185   22.1863   29.0811 H   0  0  0  0  0  0  0  0  0  0  0  0
   33.2106   22.3605   26.8955 C   0  0  0  0  0  0  0  0  0  0  0  0
   31.8103   22.3779   26.9075 C   0  0  0  0  0  0  0  0  0  0  0  0
   31.0903   21.3679   26.2671 C   0  0  0  0  0  0  0  0  0  0  0  0
   31.7658   20.3324   25.6222 C   0  0  0  0  0  0  0  0  0  0  0  0
   33.1604   20.2993   25.6230 C   0  0  0  0  0  0  0  0  0  0  0  0
   33.8851   21.3088   26.2615 C   0  0  0  0  0  0  0  0  0  0  0  0
   38.1802   23.3704   31.6574 C   0  0  0  0  0  0  0  0  0  0  0  0
   39.1855   24.1961   32.2435 O   0  0  0  0  0  0  0  0  0  0  0  0
   39.5640   24.7761   31.5643 H   0  0  0  0  0  0  0  0  0  0  0  0
   33.5642   25.1479   33.3241 C   0  0  0  0  0  0  0  0  0  0  0  0
   34.0946   26.1775   32.4990 O   0  0  0  0  0  0  0  0  0  0  0  0
 24 25  1  0
  1 25  1  0
  1  2  1  0
  2  3  1  0
  2  4  1  0
  4 11  1  0
 11 12  1  0
 12 13  2  0
 12 15  1  0
 15 16  2  0
 16 17  1  0
 17 18  2  0
 18 19  1  0
 19 20  2  0
  4  5  1  0
  5  6  1  0
  6 21  1  0
 21 22  1  0
  6  7  1  0
  7  8  1  0
  7  1  1  0
 20 15  1  0
  3  9  1  0
 11 14  1  0
 22 23  1  0
  8 10  1  0
M  END
> <minimizedAffinity>
-8.52977

> <CNNscore>
0.1835663617

> <CNNaffinity>
3.7610290051

> <CNN_VS>
0.6903983951

> <CNNaffinity_variance>
0.7108672261

$$$$



 25 26  0  0  0  0  0  0  0  0999 V2000
   34.8203   25.0494   31.4545 C   0  0  0  0  0  0  0  0  0  0  0  0
   35.1524   25.9176   32.6811 C   0  0  0  0  0  0  0  0  0  0  0  0
   33.9336   26.2629   33.3527 O   0  0  0  0  0  0  0  0  0  0  0  0
   36.1419   25.1801   33.6034 C   0  0  0  0  0  0  0  0  0  0  0  0
   37.3281   24.8689   32.8746 O   0  0  0  0  0  0  0  0  0  0  0  0
   37.0573   23.9296   31.8235 C   0  0  0  0  0  0  0  0  0  0  0  0
   36.1127   24.5503   30.7749 C   0  0  0  0  0  0  0  0  0  0  0  0
   35.7987   23.5656   29.7832 O   0  0  0  0  0  0  0  0  0  0  0  0
   33.4817   25.4537   33.6389 H   0  0  0  0  0  0  0  0  0  0  0  0
   35.3609   22.8098   30.2052 H   0  0  0  0  0  0  0  0  0  0  0  0
   36.5870   26.0098   34.6911 N   0  0  0  0  0  0  0  0  0  0  0  0
   37.8410   26.5737   34.7078 C   0  0  0  0  0  0  0  0  0  0  0  0
   38.6311   26.5093   33.7732 O   0  0  0  0  0  0  0  0  0  0  0  0
   35.9765   26.1786   35.4448 H   0  0  0  0  0  0  0  0  0  0  0  0
   38.1948   27.3450   35.9310 C   0  0  0  0  0  0  0  0  0  0  0  0
   37.1659   27.7169   36.8052 C   0  0  0  0  0  0  0  0  0  0  0  0
   37.4560   28.4400   37.9634 C   0  0  0  0  0  0  0  0  0  0  0  0
   38.7722   28.8028   38.2468 C   0  0  0  0  0  0  0  0  0  0  0  0
   39.7991   28.4517   37.3703 C   0  0  0  0  0  0  0  0  0  0  0  0
   39.5135   27.7269   36.2106 C   0  0  0  0  0  0  0  0  0  0  0  0
   38.4054   23.5207   31.2185 C   0  0  0  0  0  0  0  0  0  0  0  0
   39.4774   23.9194   32.0715 O   0  0  0  0  0  0  0  0  0  0  0  0
   39.4657   24.8836   32.1764 H   0  0  0  0  0  0  0  0  0  0  0  0
   32.9568   25.2066   29.9405 C   0  0  0  0  0  0  0  0  0  0  0  0
   34.0161   25.8927   30.5960 O   0  0  0  0  0  0  0  0  0  0  0  0
 24 25  1  0
  1 25  1  0
  1  2  1  0
  2  3  1  0
  2  4  1  0
  4 11  1  0
 11 12  1  0
 12 13  2  0
 12 15  1  0
 15 16  2  0
 16 17  1  0
 17 18  2  0
 18 19  1  0
 19 20  2  0
  4  5  1  0
  5  6  1  0
  6 21  1  0
 21 22  1  0
  6  7  1  0
  7  8  1  0
  7  1  1  0
 20 15  1  0
  3  9  1  0
 11 14  1  0
 22 23  1  0
  8 10  1  0
M  END
> <minimizedAffinity>
-8.62470

> <CNNscore>
0.1752867252

> <CNNaffinity>
4.0294175148

> <CNN_VS>
0.7063034177

> <CNNaffinity_variance>
0.1834972352

$$$$



 25 26  0  0  0  0  0  0  0  0999 V2000
   32.0554   24.6058   28.7524 C   0  0  0  0  0  0  0  0  0  0  0  0
   33.1440   24.8412   29.8147 C   0  0  0  0  0  0  0  0  0  0  0  0
   32.5979   24.5665   31.1117 O   0  0  0  0  0  0  0  0  0  0  0  0
   34.3841   23.9808   29.5060 C   0  0  0  0  0  0  0  0  0  0  0  0
   34.8749   24.3048   28.2063 O   0  0  0  0  0  0  0  0  0  0  0  0
   33.9289   23.9386   27.1907 C   0  0  0  0  0  0  0  0  0  0  0  0
   32.6368   24.7677   27.3322 C   0  0  0  0  0  0  0  0  0  0  0  0
   31.6849   24.3256   26.3573 O   0  0  0  0  0  0  0  0  0  0  0  0
   32.3006   23.6440   31.1486 H   0  0  0  0  0  0  0  0  0  0  0  0
   31.4846   23.3878   26.5031 H   0  0  0  0  0  0  0  0  0  0  0  0
   35.4779   24.2721   30.3939 N   0  0  0  0  0  0  0  0  0  0  0  0
   35.6177   25.5011   30.9945 C   0  0  0  0  0  0  0  0  0  0  0  0
   34.7875   26.3990   30.9136 O   0  0  0  0  0  0  0  0  0  0  0  0
   36.1452   23.5718   30.5767 H   0  0  0  0  0  0  0  0  0  0  0  0
   36.8376   25.6870   31.8272 C   0  0  0  0  0  0  0  0  0  0  0  0
   36.6971   26.2632   33.0959 C   0  0  0  0  0  0  0  0  0  0  0  0
   37.8162   26.4539   33.9081 C   0  0  0  0  0  0  0  0  0  0  0  0
   39.0798   26.0799   33.4520 C   0  0  0  0  0  0  0  0  0  0  0  0
   39.2288   25.5229   32.1817 C   0  0  0  0  0  0  0  0  0  0  0  0
   38.1113   25.3290   31.3660 C   0  0  0  0  0  0  0  0  0  0  0  0
   34.6096   24.1542   25.8340 C   0  0  0  0  0  0  0  0  0  0  0  0
   34.0968   23.2394   24.8665 O   0  0  0  0  0  0  0  0  0  0  0  0
   34.2695   22.3304   25.1577 H   0  0  0  0  0  0  0  0  0  0  0  0
   30.2995   26.0189   27.9104 C   0  0  0  0  0  0  0  0  0  0  0  0
   31.0144   25.5654   29.0531 O   0  0  0  0  0  0  0  0  0  0  0  0
 24 25  1  0
  1 25  1  0
  1  2  1  0
  2  3  1  0
  2  4  1  0
  4 11  1  0
 11 12  1  0
 12 13  2  0
 12 15  1  0
 15 16  2  0
 16 17  1  0
 17 18  2  0
 18 19  1  0
 19 20  2  0
  4  5  1  0
  5  6  1  0
  6 21  1  0
 21 22  1  0
  6  7  1  0
  7  8  1  0
  7  1  1  0
 20 15  1  0
  3  9  1  0
 11 14  1  0
 22 23  1  0
  8 10  1  0
M  END
> <minimizedAffinity>
-8.59921

> <CNNscore>
0.1569834948

> <CNNaffinity>
3.5537517071

> <CNN_VS>
0.5578803420

> <CNNaffinity_variance>
0.6985362172

$$$$



 25 26  0  0  0  0  0  0  0  0999 V2000
   27.9470   25.3917   27.2411 C   0  0  0  0  0  0  0  0  0  0  0  0
   26.9728   24.2887   26.7902 C   0  0  0  0  0  0  0  0  0  0  0  0
   27.7180   23.2324   26.1700 O   0  0  0  0  0  0  0  0  0  0  0  0
   26.1382   23.7938   27.9869 C   0  0  0  0  0  0  0  0  0  0  0  0
   25.4241   24.8910   28.5537 O   0  0  0  0  0  0  0  0  0  0  0  0
   26.3235   25.8534   29.1240 C   0  0  0  0  0  0  0  0  0  0  0  0
   27.1999   26.4899   28.0268 C   0  0  0  0  0  0  0  0  0  0  0  0
   28.1385   27.3851   28.6346 O   0  0  0  0  0  0  0  0  0  0  0  0
   28.3520   22.8670   26.8067 H   0  0  0  0  0  0  0  0  0  0  0  0
   28.7013   26.8929   29.2526 H   0  0  0  0  0  0  0  0  0  0  0  0
   25.1189   22.8614   27.5853 N   0  0  0  0  0  0  0  0  0  0  0  0
   24.9567   21.6485   28.2125 C   0  0  0  0  0  0  0  0  0  0  0  0
   25.5793   21.3079   29.2117 O   0  0  0  0  0  0  0  0  0  0  0  0
   24.5205   23.0984   26.8403 H   0  0  0  0  0  0  0  0  0  0  0  0
   23.9135   20.7521   27.6428 C   0  0  0  0  0  0  0  0  0  0  0  0
   23.9513   19.3916   27.9728 C   0  0  0  0  0  0  0  0  0  0  0  0
   22.9909   18.5180   27.4601 C   0  0  0  0  0  0  0  0  0  0  0  0
   21.9966   18.9980   26.6084 C   0  0  0  0  0  0  0  0  0  0  0  0
   21.9647   20.3486   26.2609 C   0  0  0  0  0  0  0  0  0  0  0  0
   22.9232   21.2268   26.7727 C   0  0  0  0  0  0  0  0  0  0  0  0
   25.4715   26.8937   29.8605 C   0  0  0  0  0  0  0  0  0  0  0  0
   25.9066   27.0293   31.2125 O   0  0  0  0  0  0  0  0  0  0  0  0
   25.8164   26.1778   31.6682 H   0  0  0  0  0  0  0  0  0  0  0  0
   27.9890   25.3483   24.8357 C   0  0  0  0  0  0  0  0  0  0  0  0
   28.5599   25.8807   26.0244 O   0  0  0  0  0  0  0  0  0  0  0  0
 24 25  1  0
  1 25  1  0
  1  2  1  0
  2  3  1  0
  2  4  1  0
  4 11  1  0
 11 12  1  0
 12 13  2  0
 12 15  1  0
 15 16  2  0
 16 17  1  0
 17 18  2  0
 18 19  1  0
 19 20  2  0
  4  5  1  0
  5  6  1  0
  6 21  1  0
 21 22  1  0
  6  7  1  0
  7  8  1  0
  7  1  1  0
 20 15  1  0
  3  9  1  0
 11 14  1  0
 22 23  1  0
  8 10  1  0
M  END
> <minimizedAffinity>
-6.11543

> <CNNscore>
0.1545128524

> <CNNaffinity>
4.0685753822

> <CNN_VS>
0.6286472082

> <CNNaffinity_variance>
0.0193766486

$$$$
