


 31 34  0  0  0  0  0  0  0  0999 V2000
   24.1379   51.4834   -2.0442 C   0  0  0  0  0  0  0  0  0  0  0  0
   25.1120   50.9913   -3.0075 N   0  0  0  0  0  0  0  0  0  0  0  0
   26.2937   50.6187   -2.6525 C   0  0  0  0  0  0  0  0  0  0  0  0
   26.8164   50.6790   -1.2516 C   0  0  0  0  0  0  0  0  0  0  0  0
   28.1199   51.1867   -1.0740 C   0  0  0  0  0  0  0  0  0  0  0  0
   28.7204   51.1742    0.1804 C   0  0  0  0  0  0  0  0  0  0  0  0
   28.0103   50.6654    1.2669 C   0  0  0  0  0  0  0  0  0  0  0  0
   26.7071   50.1848    1.1140 C   0  0  0  0  0  0  0  0  0  0  0  0
   26.0946   50.1985   -0.1445 C   0  0  0  0  0  0  0  0  0  0  0  0
   24.7351   49.8106   -0.2545 N   0  0  0  0  0  0  0  0  0  0  0  0
   24.0232   48.8591    0.4644 C   0  0  0  0  0  0  0  0  0  0  0  0
   24.6011   47.8062    1.3382 C   0  0  0  0  0  0  0  0  0  0  0  0
   22.7441   48.9534    0.1570 N   0  0  0  0  0  0  0  0  0  0  0  0
   22.6004   49.9181   -0.8054 N   0  0  0  0  0  0  0  0  0  0  0  0
   23.7952   50.3990   -1.0832 C   0  0  0  0  0  0  0  0  0  0  0  0
   27.1835   50.0960   -3.7425 C   0  0  0  0  0  0  0  0  0  0  0  0
   28.3857   49.4786   -3.3846 C   0  0  0  0  0  0  0  0  0  0  0  0
   29.2394   48.9782   -4.3686 C   0  0  0  0  0  0  0  0  0  0  0  0
   28.9004   49.1064   -5.7114 C   0  0  0  0  0  0  0  0  0  0  0  0
   29.9458   48.4904   -6.9246 Cl  0  0  0  0  0  0  0  0  0  0  0  0
   27.7181   49.7413   -6.0797 C   0  0  0  0  0  0  0  0  0  0  0  0
   26.8614   50.2433   -5.0975 C   0  0  0  0  0  0  0  0  0  0  0  0
   29.9748   51.6276    0.4775 O   0  0  0  0  0  0  0  0  0  0  0  0
   30.1448   52.3305    1.7060 C   0  0  0  0  0  0  0  0  0  0  0  0
   22.9296   52.0455   -2.7982 C   0  0  0  0  0  0  0  0  0  0  0  0
   22.8088   51.4222   -5.1539 N   0  0  0  0  0  0  0  0  0  0  0  0
   23.1884   52.3936   -4.2541 C   0  0  0  0  0  0  0  0  0  0  0  0
   23.6530   53.4801   -4.5900 O   0  0  0  0  0  0  0  0  0  0  0  0
   22.2950   50.6440   -4.8381 H   0  0  0  0  0  0  0  0  0  0  0  0
   23.7991   50.2519   -7.0523 C   0  0  0  0  0  0  0  0  0  0  0  0
   23.1525   51.5265   -6.5556 C   0  0  0  0  0  0  0  0  0  0  0  0
 30 31  1  0
 31 26  1  0
 26 27  1  0
 27 28  2  0
 27 25  1  0
  1 25  1  0
  1  2  1  0
  2  3  2  0
  3 16  1  0
 16 17  2  0
 17 18  1  0
 18 19  2  0
 19 20  1  0
 19 21  1  0
 21 22  2  0
  3  4  1  0
  4  5  2  0
  5  6  1  0
  6 23  1  0
 23 24  1  0
  6  7  2  0
  7  8  1  0
  8  9  2  0
  9 10  1  0
 10 11  1  0
 11 12  1  0
 11 13  2  0
 13 14  1  0
 14 15  2  0
 15  1  1  0
 22 16  1  0
  9  4  1  0
 15 10  1  0
 26 29  1  0
M  END
> <minimizedAffinity>
-9.25908

> <CNNscore>
0.9800590873

> <CNNaffinity>
7.2937922478

> <CNN_VS>
7.1483473778

> <CNNaffinity_variance>
0.0294871554

$$$$



 31 34  0  0  0  0  0  0  0  0999 V2000
   25.1256   52.5301   -2.5120 C   0  0  0  0  0  0  0  0  0  0  0  0
   26.1850   51.9363   -3.3146 N   0  0  0  0  0  0  0  0  0  0  0  0
   27.1664   51.2938   -2.7805 C   0  0  0  0  0  0  0  0  0  0  0  0
   27.3602   51.1140   -1.3076 C   0  0  0  0  0  0  0  0  0  0  0  0
   28.6602   51.3194   -0.8013 C   0  0  0  0  0  0  0  0  0  0  0  0
   28.9483   51.0660    0.5355 C   0  0  0  0  0  0  0  0  0  0  0  0
   27.9295   50.6189    1.3756 C   0  0  0  0  0  0  0  0  0  0  0  0
   26.6292   50.4375    0.8970 C   0  0  0  0  0  0  0  0  0  0  0  0
   26.3308   50.6949   -0.4461 C   0  0  0  0  0  0  0  0  0  0  0  0
   24.9841   50.6116   -0.8820 N   0  0  0  0  0  0  0  0  0  0  0  0
   23.9653   49.7678   -0.4588 C   0  0  0  0  0  0  0  0  0  0  0  0
   24.1266   48.5412    0.3634 C   0  0  0  0  0  0  0  0  0  0  0  0
   22.8288   50.1553   -1.0043 N   0  0  0  0  0  0  0  0  0  0  0  0
   23.0867   51.2133   -1.8360 N   0  0  0  0  0  0  0  0  0  0  0  0
   24.3808   51.4573   -1.7970 C   0  0  0  0  0  0  0  0  0  0  0  0
   28.1682   50.6995   -3.7272 C   0  0  0  0  0  0  0  0  0  0  0  0
   28.8679   51.5554   -4.5830 C   0  0  0  0  0  0  0  0  0  0  0  0
   29.8088   51.0415   -5.4764 C   0  0  0  0  0  0  0  0  0  0  0  0
   30.0416   49.6712   -5.5263 C   0  0  0  0  0  0  0  0  0  0  0  0
   31.1993   49.0352   -6.6214 Cl  0  0  0  0  0  0  0  0  0  0  0  0
   29.3329   48.8078   -4.6964 C   0  0  0  0  0  0  0  0  0  0  0  0
   28.3904   49.3186   -3.8011 C   0  0  0  0  0  0  0  0  0  0  0  0
   30.1642   51.2178    1.1403 O   0  0  0  0  0  0  0  0  0  0  0  0
   30.6632   52.5451    1.2869 C   0  0  0  0  0  0  0  0  0  0  0  0
   24.2440   53.3994   -3.4129 C   0  0  0  0  0  0  0  0  0  0  0  0
   24.6035   54.9902   -5.2274 N   0  0  0  0  0  0  0  0  0  0  0  0
   24.9040   54.6694   -3.9219 C   0  0  0  0  0  0  0  0  0  0  0  0
   25.6067   55.3715   -3.1991 O   0  0  0  0  0  0  0  0  0  0  0  0
   23.9089   54.4804   -5.7036 H   0  0  0  0  0  0  0  0  0  0  0  0
   25.4891   55.7378   -7.3748 C   0  0  0  0  0  0  0  0  0  0  0  0
   25.2919   56.0640   -5.9105 C   0  0  0  0  0  0  0  0  0  0  0  0
 30 31  1  0
 31 26  1  0
 26 27  1  0
 27 28  2  0
 27 25  1  0
  1 25  1  0
  1  2  1  0
  2  3  2  0
  3 16  1  0
 16 17  2  0
 17 18  1  0
 18 19  2  0
 19 20  1  0
 19 21  1  0
 21 22  2  0
  3  4  1  0
  4  5  2  0
  5  6  1  0
  6 23  1  0
 23 24  1  0
  6  7  2  0
  7  8  1  0
  8  9  2  0
  9 10  1  0
 10 11  1  0
 11 12  1  0
 11 13  2  0
 13 14  1  0
 14 15  2  0
 15  1  1  0
 22 16  1  0
  9  4  1  0
 15 10  1  0
 26 29  1  0
M  END
> <minimizedAffinity>
-7.49656

> <CNNscore>
0.9096430540

> <CNNaffinity>
6.7595524788

> <CNN_VS>
6.1487798691

> <CNNaffinity_variance>
0.0575425811

$$$$



 31 34  0  0  0  0  0  0  0  0999 V2000
   25.0134   51.2649   -3.5138 C   0  0  0  0  0  0  0  0  0  0  0  0
   26.0777   50.6925   -4.3254 N   0  0  0  0  0  0  0  0  0  0  0  0
   27.2812   50.5669   -3.8816 C   0  0  0  0  0  0  0  0  0  0  0  0
   27.7370   51.0162   -2.5289 C   0  0  0  0  0  0  0  0  0  0  0  0
   28.9605   51.7140   -2.4627 C   0  0  0  0  0  0  0  0  0  0  0  0
   29.5081   52.0692   -1.2347 C   0  0  0  0  0  0  0  0  0  0  0  0
   28.8235   51.7388   -0.0660 C   0  0  0  0  0  0  0  0  0  0  0  0
   27.5960   51.0727   -0.1145 C   0  0  0  0  0  0  0  0  0  0  0  0
   27.0365   50.7162   -1.3470 C   0  0  0  0  0  0  0  0  0  0  0  0
   25.7402   50.1423   -1.3762 N   0  0  0  0  0  0  0  0  0  0  0  0
   25.1224   49.2996   -0.4611 C   0  0  0  0  0  0  0  0  0  0  0  0
   25.7901   48.5605    0.6407 C   0  0  0  0  0  0  0  0  0  0  0  0
   23.8545   49.1553   -0.7944 N   0  0  0  0  0  0  0  0  0  0  0  0
   23.6317   49.8446   -1.9575 N   0  0  0  0  0  0  0  0  0  0  0  0
   24.7686   50.3974   -2.3287 C   0  0  0  0  0  0  0  0  0  0  0  0
   28.2706   49.9248   -4.8101 C   0  0  0  0  0  0  0  0  0  0  0  0
   28.1248   48.5661   -5.1055 C   0  0  0  0  0  0  0  0  0  0  0  0
   29.0232   47.9332   -5.9656 C   0  0  0  0  0  0  0  0  0  0  0  0
   30.0764   48.6527   -6.5202 C   0  0  0  0  0  0  0  0  0  0  0  0
   31.1820   47.8792   -7.5801 Cl  0  0  0  0  0  0  0  0  0  0  0  0
   30.2454   49.9994   -6.2132 C   0  0  0  0  0  0  0  0  0  0  0  0
   29.3481   50.6360   -5.3528 C   0  0  0  0  0  0  0  0  0  0  0  0
   30.6849   52.7361   -1.0401 O   0  0  0  0  0  0  0  0  0  0  0  0
   31.1563   53.5596   -2.1040 C   0  0  0  0  0  0  0  0  0  0  0  0
   23.7760   51.4775   -4.3902 C   0  0  0  0  0  0  0  0  0  0  0  0
   21.7644   52.8576   -4.4258 N   0  0  0  0  0  0  0  0  0  0  0  0
   23.1329   52.8484   -4.2688 C   0  0  0  0  0  0  0  0  0  0  0  0
   23.7882   53.8523   -4.0008 O   0  0  0  0  0  0  0  0  0  0  0  0
   21.2773   52.0036   -4.4767 H   0  0  0  0  0  0  0  0  0  0  0  0
   19.7088   53.9015   -5.2252 C   0  0  0  0  0  0  0  0  0  0  0  0
   21.0310   54.1015   -4.5172 C   0  0  0  0  0  0  0  0  0  0  0  0
 30 31  1  0
 31 26  1  0
 26 27  1  0
 27 28  2  0
 27 25  1  0
  1 25  1  0
  1  2  1  0
  2  3  2  0
  3 16  1  0
 16 17  2  0
 17 18  1  0
 18 19  2  0
 19 20  1  0
 19 21  1  0
 21 22  2  0
  3  4  1  0
  4  5  2  0
  5  6  1  0
  6 23  1  0
 23 24  1  0
  6  7  2  0
  7  8  1  0
  8  9  2  0
  9 10  1  0
 10 11  1  0
 11 12  1  0
 11 13  2  0
 13 14  1  0
 14 15  2  0
 15  1  1  0
 22 16  1  0
  9  4  1  0
 15 10  1  0
 26 29  1  0
M  END
> <minimizedAffinity>
-6.30910

> <CNNscore>
0.8109918833

> <CNNaffinity>
6.6565394402

> <CNN_VS>
5.3983993530

> <CNNaffinity_variance>
0.0562714785

$$$$



 31 34  0  0  0  0  0  0  0  0999 V2000
   24.4565   49.7198   -0.6075 C   0  0  0  0  0  0  0  0  0  0  0  0
   25.6771   50.1773    0.0405 N   0  0  0  0  0  0  0  0  0  0  0  0
   26.7559   50.4109   -0.6250 C   0  0  0  0  0  0  0  0  0  0  0  0
   26.9017   50.2102   -2.1008 C   0  0  0  0  0  0  0  0  0  0  0  0
   28.0751   49.5693   -2.5488 C   0  0  0  0  0  0  0  0  0  0  0  0
   28.3386   49.4429   -3.9085 C   0  0  0  0  0  0  0  0  0  0  0  0
   27.4184   49.9462   -4.8269 C   0  0  0  0  0  0  0  0  0  0  0  0
   26.2370   50.5587   -4.4006 C   0  0  0  0  0  0  0  0  0  0  0  0
   25.9629   50.6853   -3.0338 C   0  0  0  0  0  0  0  0  0  0  0  0
   24.7093   51.2083   -2.6270 N   0  0  0  0  0  0  0  0  0  0  0  0
   23.9142   52.1753   -3.2284 C   0  0  0  0  0  0  0  0  0  0  0  0
   24.3319   53.1092   -4.3052 C   0  0  0  0  0  0  0  0  0  0  0  0
   22.7509   52.2244   -2.6090 N   0  0  0  0  0  0  0  0  0  0  0  0
   22.7811   51.3422   -1.5609 N   0  0  0  0  0  0  0  0  0  0  0  0
   23.9667   50.7678   -1.5449 C   0  0  0  0  0  0  0  0  0  0  0  0
   27.9296   50.9151    0.1633 C   0  0  0  0  0  0  0  0  0  0  0  0
   27.9059   50.7829    1.5549 C   0  0  0  0  0  0  0  0  0  0  0  0
   28.9786   51.2378    2.3228 C   0  0  0  0  0  0  0  0  0  0  0  0
   30.0698   51.8378    1.7033 C   0  0  0  0  0  0  0  0  0  0  0  0
   31.3921   52.3963    2.6433 Cl  0  0  0  0  0  0  0  0  0  0  0  0
   30.0928   51.9968    0.3211 C   0  0  0  0  0  0  0  0  0  0  0  0
   29.0208   51.5429   -0.4506 C   0  0  0  0  0  0  0  0  0  0  0  0
   29.4386   48.8528   -4.4644 O   0  0  0  0  0  0  0  0  0  0  0  0
   29.6689   49.0715   -5.8542 C   0  0  0  0  0  0  0  0  0  0  0  0
   23.4383   49.3263    0.4663 C   0  0  0  0  0  0  0  0  0  0  0  0
   22.6783   47.5699    1.9794 N   0  0  0  0  0  0  0  0  0  0  0  0
   23.6089   47.9253    1.0281 C   0  0  0  0  0  0  0  0  0  0  0  0
   24.4814   47.1630    0.6197 O   0  0  0  0  0  0  0  0  0  0  0  0
   21.9084   48.1600    2.1477 H   0  0  0  0  0  0  0  0  0  0  0  0
   23.7768   46.5203    3.8888 C   0  0  0  0  0  0  0  0  0  0  0  0
   22.8134   46.3437    2.7356 C   0  0  0  0  0  0  0  0  0  0  0  0
 30 31  1  0
 31 26  1  0
 26 27  1  0
 27 28  2  0
 27 25  1  0
  1 25  1  0
  1  2  1  0
  2  3  2  0
  3 16  1  0
 16 17  2  0
 17 18  1  0
 18 19  2  0
 19 20  1  0
 19 21  1  0
 21 22  2  0
  3  4  1  0
  4  5  2  0
  5  6  1  0
  6 23  1  0
 23 24  1  0
  6  7  2  0
  7  8  1  0
  8  9  2  0
  9 10  1  0
 10 11  1  0
 11 12  1  0
 11 13  2  0
 13 14  1  0
 14 15  2  0
 15  1  1  0
 22 16  1  0
  9  4  1  0
 15 10  1  0
 26 29  1  0
M  END
> <minimizedAffinity>
-9.35001

> <CNNscore>
0.3865464032

> <CNNaffinity>
6.1671314240

> <CNN_VS>
2.3838825226

> <CNNaffinity_variance>
0.4329987764

$$$$



 31 34  0  0  0  0  0  0  0  0999 V2000
   24.4217   50.4353   -2.1905 C   0  0  0  0  0  0  0  0  0  0  0  0
   25.5520   50.6907   -1.3095 N   0  0  0  0  0  0  0  0  0  0  0  0
   26.7644   50.7175   -1.7461 C   0  0  0  0  0  0  0  0  0  0  0  0
   27.1599   50.4580   -3.1659 C   0  0  0  0  0  0  0  0  0  0  0  0
   28.2682   49.6128   -3.3794 C   0  0  0  0  0  0  0  0  0  0  0  0
   28.7675   49.4089   -4.6614 C   0  0  0  0  0  0  0  0  0  0  0  0
   28.1479   50.0409   -5.7385 C   0  0  0  0  0  0  0  0  0  0  0  0
   27.0311   50.8590   -5.5481 C   0  0  0  0  0  0  0  0  0  0  0  0
   26.5203   51.0650   -4.2613 C   0  0  0  0  0  0  0  0  0  0  0  0
   25.3221   51.8070   -4.1052 N   0  0  0  0  0  0  0  0  0  0  0  0
   24.8418   52.8817   -4.8422 C   0  0  0  0  0  0  0  0  0  0  0  0
   25.6194   53.7022   -5.8059 C   0  0  0  0  0  0  0  0  0  0  0  0
   23.6063   53.1468   -4.4647 N   0  0  0  0  0  0  0  0  0  0  0  0
   23.2756   52.2990   -3.4402 N   0  0  0  0  0  0  0  0  0  0  0  0
   24.3162   51.5287   -3.1958 C   0  0  0  0  0  0  0  0  0  0  0  0
   27.8300   51.0304   -0.7364 C   0  0  0  0  0  0  0  0  0  0  0  0
   28.9771   51.7061   -1.1635 C   0  0  0  0  0  0  0  0  0  0  0  0
   29.9895   52.0167   -0.2547 C   0  0  0  0  0  0  0  0  0  0  0  0
   29.8643   51.6404    1.0784 C   0  0  0  0  0  0  0  0  0  0  0  0
   31.1055   52.0224    2.1998 Cl  0  0  0  0  0  0  0  0  0  0  0  0
   28.7381   50.9457    1.5092 C   0  0  0  0  0  0  0  0  0  0  0  0
   27.7228   50.6331    0.6024 C   0  0  0  0  0  0  0  0  0  0  0  0
   29.8351   48.6238   -4.9947 O   0  0  0  0  0  0  0  0  0  0  0  0
   30.3841   48.7824   -6.3007 C   0  0  0  0  0  0  0  0  0  0  0  0
   23.1597   50.2508   -1.3434 C   0  0  0  0  0  0  0  0  0  0  0  0
   23.9128   48.3795    0.0290 N   0  0  0  0  0  0  0  0  0  0  0  0
   23.3945   49.6557    0.0345 C   0  0  0  0  0  0  0  0  0  0  0  0
   23.1821   50.2934    1.0627 O   0  0  0  0  0  0  0  0  0  0  0  0
   24.2135   47.9828   -0.8204 H   0  0  0  0  0  0  0  0  0  0  0  0
   25.4437   47.6193    1.7705 C   0  0  0  0  0  0  0  0  0  0  0  0
   24.0227   47.6122    1.2508 C   0  0  0  0  0  0  0  0  0  0  0  0
 30 31  1  0
 31 26  1  0
 26 27  1  0
 27 28  2  0
 27 25  1  0
  1 25  1  0
  1  2  1  0
  2  3  2  0
  3 16  1  0
 16 17  2  0
 17 18  1  0
 18 19  2  0
 19 20  1  0
 19 21  1  0
 21 22  2  0
  3  4  1  0
  4  5  2  0
  5  6  1  0
  6 23  1  0
 23 24  1  0
  6  7  2  0
  7  8  1  0
  8  9  2  0
  9 10  1  0
 10 11  1  0
 11 12  1  0
 11 13  2  0
 13 14  1  0
 14 15  2  0
 15  1  1  0
 22 16  1  0
  9  4  1  0
 15 10  1  0
 26 29  1  0
M  END
> <minimizedAffinity>
-7.91861

> <CNNscore>
0.2703939676

> <CNNaffinity>
5.9467010498

> <CNN_VS>
1.6079521179

> <CNNaffinity_variance>
0.3238297999

$$$$



 31 34  0  0  0  0  0  0  0  0999 V2000
   27.3716   50.5572   -3.4696 C   0  0  0  0  0  0  0  0  0  0  0  0
   27.7413   51.9396   -3.7368 N   0  0  0  0  0  0  0  0  0  0  0  0
   26.8618   52.8792   -3.8068 C   0  0  0  0  0  0  0  0  0  0  0  0
   25.3865   52.6715   -3.6664 C   0  0  0  0  0  0  0  0  0  0  0  0
   24.5543   53.3283   -4.5961 C   0  0  0  0  0  0  0  0  0  0  0  0
   23.1703   53.2766   -4.4687 C   0  0  0  0  0  0  0  0  0  0  0  0
   22.6131   52.5527   -3.4155 C   0  0  0  0  0  0  0  0  0  0  0  0
   23.4224   51.8722   -2.5019 C   0  0  0  0  0  0  0  0  0  0  0  0
   24.8159   51.9160   -2.6265 C   0  0  0  0  0  0  0  0  0  0  0  0
   25.6116   51.1282   -1.7566 N   0  0  0  0  0  0  0  0  0  0  0  0
   25.3956   50.7784   -0.4300 C   0  0  0  0  0  0  0  0  0  0  0  0
   24.4050   51.3943    0.4897 C   0  0  0  0  0  0  0  0  0  0  0  0
   26.2969   49.8871   -0.0660 N   0  0  0  0  0  0  0  0  0  0  0  0
   27.1512   49.6814   -1.1174 N   0  0  0  0  0  0  0  0  0  0  0  0
   26.7683   50.4558   -2.1121 C   0  0  0  0  0  0  0  0  0  0  0  0
   27.3847   54.2651   -4.0496 C   0  0  0  0  0  0  0  0  0  0  0  0
   28.3556   54.4488   -5.0386 C   0  0  0  0  0  0  0  0  0  0  0  0
   28.8655   55.7222   -5.2955 C   0  0  0  0  0  0  0  0  0  0  0  0
   28.4170   56.8111   -4.5554 C   0  0  0  0  0  0  0  0  0  0  0  0
   29.0393   58.3789   -4.8695 Cl  0  0  0  0  0  0  0  0  0  0  0  0
   27.4691   56.6356   -3.5518 C   0  0  0  0  0  0  0  0  0  0  0  0
   26.9567   55.3626   -3.2920 C   0  0  0  0  0  0  0  0  0  0  0  0
   22.2623   53.8750   -5.2961 O   0  0  0  0  0  0  0  0  0  0  0  0
   20.8833   53.7499   -4.9571 C   0  0  0  0  0  0  0  0  0  0  0  0
   28.5995   49.6643   -3.6684 C   0  0  0  0  0  0  0  0  0  0  0  0
   30.0061   49.1891   -5.6043 N   0  0  0  0  0  0  0  0  0  0  0  0
   28.7452   49.0763   -5.0614 C   0  0  0  0  0  0  0  0  0  0  0  0
   27.8163   48.5035   -5.6256 O   0  0  0  0  0  0  0  0  0  0  0  0
   30.7479   49.5112   -5.0428 H   0  0  0  0  0  0  0  0  0  0  0  0
   31.3687   47.8195   -7.0949 C   0  0  0  0  0  0  0  0  0  0  0  0
   30.2586   48.8419   -6.9861 C   0  0  0  0  0  0  0  0  0  0  0  0
 30 31  1  0
 31 26  1  0
 26 27  1  0
 27 28  2  0
 27 25  1  0
  1 25  1  0
  1  2  1  0
  2  3  2  0
  3 16  1  0
 16 17  2  0
 17 18  1  0
 18 19  2  0
 19 20  1  0
 19 21  1  0
 21 22  2  0
  3  4  1  0
  4  5  2  0
  5  6  1  0
  6 23  1  0
 23 24  1  0
  6  7  2  0
  7  8  1  0
  8  9  2  0
  9 10  1  0
 10 11  1  0
 11 12  1  0
 11 13  2  0
 13 14  1  0
 14 15  2  0
 15  1  1  0
 22 16  1  0
  9  4  1  0
 15 10  1  0
 26 29  1  0
M  END
> <minimizedAffinity>
-5.98778

> <CNNscore>
0.2189196348

> <CNNaffinity>
5.3439311981

> <CNN_VS>
1.1698914766

> <CNNaffinity_variance>
0.3435927927

$$$$



 31 34  0  0  0  0  0  0  0  0999 V2000
   26.4415   49.9585   -0.4746 C   0  0  0  0  0  0  0  0  0  0  0  0
   27.6091   50.8275   -0.4492 N   0  0  0  0  0  0  0  0  0  0  0  0
   28.3448   51.0117   -1.4914 C   0  0  0  0  0  0  0  0  0  0  0  0
   28.1245   50.3451   -2.8129 C   0  0  0  0  0  0  0  0  0  0  0  0
   29.2589   49.8166   -3.4625 C   0  0  0  0  0  0  0  0  0  0  0  0
   29.1575   49.2800   -4.7416 C   0  0  0  0  0  0  0  0  0  0  0  0
   27.9135   49.2575   -5.3705 C   0  0  0  0  0  0  0  0  0  0  0  0
   26.7738   49.7509   -4.7300 C   0  0  0  0  0  0  0  0  0  0  0  0
   26.8675   50.2881   -3.4409 C   0  0  0  0  0  0  0  0  0  0  0  0
   25.6819   50.6791   -2.7684 N   0  0  0  0  0  0  0  0  0  0  0  0
   24.5076   51.2157   -3.2803 C   0  0  0  0  0  0  0  0  0  0  0  0
   24.3214   51.7810   -4.6412 C   0  0  0  0  0  0  0  0  0  0  0  0
   23.6003   51.2603   -2.3242 N   0  0  0  0  0  0  0  0  0  0  0  0
   24.1740   50.8151   -1.1622 N   0  0  0  0  0  0  0  0  0  0  0  0
   25.4299   50.5099   -1.4178 C   0  0  0  0  0  0  0  0  0  0  0  0
   29.4950   51.9634   -1.3358 C   0  0  0  0  0  0  0  0  0  0  0  0
   29.9031   52.7053   -2.4483 C   0  0  0  0  0  0  0  0  0  0  0  0
   30.9674   53.6018   -2.3438 C   0  0  0  0  0  0  0  0  0  0  0  0
   31.6345   53.7480   -1.1321 C   0  0  0  0  0  0  0  0  0  0  0  0
   32.9420   54.8510   -0.9982 Cl  0  0  0  0  0  0  0  0  0  0  0  0
   31.2526   52.9964   -0.0250 C   0  0  0  0  0  0  0  0  0  0  0  0
   30.1879   52.0981   -0.1261 C   0  0  0  0  0  0  0  0  0  0  0  0
   30.1800   48.7477   -5.4753 O   0  0  0  0  0  0  0  0  0  0  0  0
   29.9257   48.4692   -6.8501 C   0  0  0  0  0  0  0  0  0  0  0  0
   25.9212   49.7791    0.9542 C   0  0  0  0  0  0  0  0  0  0  0  0
   23.7444   48.6823    1.0601 N   0  0  0  0  0  0  0  0  0  0  0  0
   25.1063   48.5180    1.1855 C   0  0  0  0  0  0  0  0  0  0  0  0
   25.6370   47.4342    1.4151 O   0  0  0  0  0  0  0  0  0  0  0  0
   23.3892   49.5336    0.7163 H   0  0  0  0  0  0  0  0  0  0  0  0
   21.4262   47.9299    0.9428 C   0  0  0  0  0  0  0  0  0  0  0  0
   22.8274   47.6243    1.4251 C   0  0  0  0  0  0  0  0  0  0  0  0
 30 31  1  0
 31 26  1  0
 26 27  1  0
 27 28  2  0
 27 25  1  0
  1 25  1  0
  1  2  1  0
  2  3  2  0
  3 16  1  0
 16 17  2  0
 17 18  1  0
 18 19  2  0
 19 20  1  0
 19 21  1  0
 21 22  2  0
  3  4  1  0
  4  5  2  0
  5  6  1  0
  6 23  1  0
 23 24  1  0
  6  7  2  0
  7  8  1  0
  8  9  2  0
  9 10  1  0
 10 11  1  0
 11 12  1  0
 11 13  2  0
 13 14  1  0
 14 15  2  0
 15  1  1  0
 22 16  1  0
  9  4  1  0
 15 10  1  0
 26 29  1  0
M  END
> <minimizedAffinity>
-7.24363

> <CNNscore>
0.2012279630

> <CNNaffinity>
5.9404869080

> <CNN_VS>
1.1953921318

> <CNNaffinity_variance>
0.1379125267

$$$$



 31 34  0  0  0  0  0  0  0  0999 V2000
   26.3767   51.3985   -3.5896 C   0  0  0  0  0  0  0  0  0  0  0  0
   27.1837   50.6823   -4.5668 N   0  0  0  0  0  0  0  0  0  0  0  0
   28.4338   50.9430   -4.7412 C   0  0  0  0  0  0  0  0  0  0  0  0
   29.1868   52.0110   -4.0119 C   0  0  0  0  0  0  0  0  0  0  0  0
   30.0400   52.8319   -4.7776 C   0  0  0  0  0  0  0  0  0  0  0  0
   30.8570   53.7742   -4.1620 C   0  0  0  0  0  0  0  0  0  0  0  0
   30.8115   53.9081   -2.7751 C   0  0  0  0  0  0  0  0  0  0  0  0
   29.9508   53.1226   -2.0037 C   0  0  0  0  0  0  0  0  0  0  0  0
   29.1224   52.1755   -2.6168 C   0  0  0  0  0  0  0  0  0  0  0  0
   28.1789   51.4701   -1.8275 N   0  0  0  0  0  0  0  0  0  0  0  0
   28.2659   51.0480   -0.5072 C   0  0  0  0  0  0  0  0  0  0  0  0
   29.5018   50.9853    0.3144 C   0  0  0  0  0  0  0  0  0  0  0  0
   27.0908   50.5895   -0.1220 N   0  0  0  0  0  0  0  0  0  0  0  0
   26.2337   50.6446   -1.1897 N   0  0  0  0  0  0  0  0  0  0  0  0
   26.8961   51.1290   -2.2204 C   0  0  0  0  0  0  0  0  0  0  0  0
   29.1553   50.1022   -5.7540 C   0  0  0  0  0  0  0  0  0  0  0  0
   29.9505   49.0457   -5.3003 C   0  0  0  0  0  0  0  0  0  0  0  0
   30.6358   48.2401   -6.2107 C   0  0  0  0  0  0  0  0  0  0  0  0
   30.5392   48.4974   -7.5741 C   0  0  0  0  0  0  0  0  0  0  0  0
   31.3780   47.5079   -8.6973 Cl  0  0  0  0  0  0  0  0  0  0  0  0
   29.7703   49.5617   -8.0352 C   0  0  0  0  0  0  0  0  0  0  0  0
   29.0832   50.3700   -7.1269 C   0  0  0  0  0  0  0  0  0  0  0  0
   31.7282   54.6186   -4.7908 O   0  0  0  0  0  0  0  0  0  0  0  0
   32.3540   55.6250   -3.9985 C   0  0  0  0  0  0  0  0  0  0  0  0
   24.9064   51.0159   -3.7792 C   0  0  0  0  0  0  0  0  0  0  0  0
   23.2284   50.8714   -5.5444 N   0  0  0  0  0  0  0  0  0  0  0  0
   24.2353   51.6334   -4.9941 C   0  0  0  0  0  0  0  0  0  0  0  0
   24.5427   52.7476   -5.4103 O   0  0  0  0  0  0  0  0  0  0  0  0
   22.9185   50.0650   -5.0723 H   0  0  0  0  0  0  0  0  0  0  0  0
   21.3097   51.9628   -6.5844 C   0  0  0  0  0  0  0  0  0  0  0  0
   22.6186   51.2364   -6.8048 C   0  0  0  0  0  0  0  0  0  0  0  0
 30 31  1  0
 31 26  1  0
 26 27  1  0
 27 28  2  0
 27 25  1  0
  1 25  1  0
  1  2  1  0
  2  3  2  0
  3 16  1  0
 16 17  2  0
 17 18  1  0
 18 19  2  0
 19 20  1  0
 19 21  1  0
 21 22  2  0
  3  4  1  0
  4  5  2  0
  5  6  1  0
  6 23  1  0
 23 24  1  0
  6  7  2  0
  7  8  1  0
  8  9  2  0
  9 10  1  0
 10 11  1  0
 11 12  1  0
 11 13  2  0
 13 14  1  0
 14 15  2  0
 15  1  1  0
 22 16  1  0
  9  4  1  0
 15 10  1  0
 26 29  1  0
M  END
> <minimizedAffinity>
-5.25654

> <CNNscore>
0.1964245439

> <CNNaffinity>
5.3101005554

> <CNN_VS>
1.0430340767

> <CNNaffinity_variance>
0.2673495710

$$$$



 31 34  0  0  0  0  0  0  0  0999 V2000
   34.8996   52.5965    2.4913 C   0  0  0  0  0  0  0  0  0  0  0  0
   33.4959   52.2444    2.6485 N   0  0  0  0  0  0  0  0  0  0  0  0
   32.5658   52.8349    1.9796 C   0  0  0  0  0  0  0  0  0  0  0  0
   32.7968   53.9533    1.0125 C   0  0  0  0  0  0  0  0  0  0  0  0
   31.9235   55.0578    1.0877 C   0  0  0  0  0  0  0  0  0  0  0  0
   32.0006   56.0870    0.1554 C   0  0  0  0  0  0  0  0  0  0  0  0
   32.9648   56.0206   -0.8493 C   0  0  0  0  0  0  0  0  0  0  0  0
   33.8569   54.9474   -0.9215 C   0  0  0  0  0  0  0  0  0  0  0  0
   33.7881   53.9103    0.0160 C   0  0  0  0  0  0  0  0  0  0  0  0
   34.7730   52.8905   -0.0098 N   0  0  0  0  0  0  0  0  0  0  0  0
   35.4454   52.3339   -1.0900 C   0  0  0  0  0  0  0  0  0  0  0  0
   35.0781   52.4795   -2.5218 C   0  0  0  0  0  0  0  0  0  0  0  0
   36.4031   51.5451   -0.6428 N   0  0  0  0  0  0  0  0  0  0  0  0
   36.3399   51.5209    0.7258 N   0  0  0  0  0  0  0  0  0  0  0  0
   35.3381   52.2895    1.1019 C   0  0  0  0  0  0  0  0  0  0  0  0
   31.1654   52.3465    2.2109 C   0  0  0  0  0  0  0  0  0  0  0  0
   30.5624   51.5571    1.2271 C   0  0  0  0  0  0  0  0  0  0  0  0
   29.2624   51.0823    1.4056 C   0  0  0  0  0  0  0  0  0  0  0  0
   28.5579   51.4070    2.5601 C   0  0  0  0  0  0  0  0  0  0  0  0
   26.9601   50.8234    2.7850 Cl  0  0  0  0  0  0  0  0  0  0  0  0
   29.1394   52.2126    3.5344 C   0  0  0  0  0  0  0  0  0  0  0  0
   30.4404   52.6896    3.3590 C   0  0  0  0  0  0  0  0  0  0  0  0
   31.2094   57.2005    0.1175 O   0  0  0  0  0  0  0  0  0  0  0  0
   30.9488   57.7772   -1.1599 C   0  0  0  0  0  0  0  0  0  0  0  0
   35.7178   51.8812    3.5698 C   0  0  0  0  0  0  0  0  0  0  0  0
   37.1791   49.9691    3.1683 N   0  0  0  0  0  0  0  0  0  0  0  0
   35.8805   50.3850    3.3634 C   0  0  0  0  0  0  0  0  0  0  0  0
   34.9261   49.6135    3.4197 O   0  0  0  0  0  0  0  0  0  0  0  0
   37.9165   50.6090    3.2950 H   0  0  0  0  0  0  0  0  0  0  0  0
   38.2981   47.9079    3.8414 C   0  0  0  0  0  0  0  0  0  0  0  0
   37.4775   48.6076    2.7801 C   0  0  0  0  0  0  0  0  0  0  0  0
 30 31  1  0
 31 26  1  0
 26 27  1  0
 27 28  2  0
 27 25  1  0
  1 25  1  0
  1  2  1  0
  2  3  2  0
  3 16  1  0
 16 17  2  0
 17 18  1  0
 18 19  2  0
 19 20  1  0
 19 21  1  0
 21 22  2  0
  3  4  1  0
  4  5  2  0
  5  6  1  0
  6 23  1  0
 23 24  1  0
  6  7  2  0
  7  8  1  0
  8  9  2  0
  9 10  1  0
 10 11  1  0
 11 12  1  0
 11 13  2  0
 13 14  1  0
 14 15  2  0
 15  1  1  0
 22 16  1  0
  9  4  1  0
 15 10  1  0
 26 29  1  0
M  END
> <minimizedAffinity>
-5.46888

> <CNNscore>
0.1832183301

> <CNNaffinity>
4.8798065186

> <CNN_VS>
0.8940700293

> <CNNaffinity_variance>
0.2031404525

$$$$
