


 21 23  0  0  0  0  0  0  0  0999 V2000
  -33.5311   -9.6938    8.6108 N   0  0  0  0  0  0  0  0  0  0  0  0
  -33.8403  -10.6150    8.7690 H   0  0  0  0  0  0  0  0  0  0  0  0
  -33.3041   -9.2437    7.2966 C   0  0  0  0  0  0  0  0  0  0  0  0
  -33.0012   -7.9311    7.0827 N   0  0  0  0  0  0  0  0  0  0  0  0
  -32.7873   -7.5109    5.8192 C   0  0  0  0  0  0  0  0  0  0  0  0
  -32.8279   -8.2345    4.6869 N   0  0  0  0  0  0  0  0  0  0  0  0
  -33.1310   -9.5151    4.9450 C   0  0  0  0  0  0  0  0  0  0  0  0
  -33.2597  -10.5214    4.0321 N   0  0  0  0  0  0  0  0  0  0  0  0
  -33.5750  -11.7142    4.5818 N   0  0  0  0  0  0  0  0  0  0  0  0
  -33.6496  -11.4365    5.8893 C   0  0  0  0  0  0  0  0  0  0  0  0
  -33.3770  -10.0834    6.1801 C   0  0  0  0  0  0  0  0  0  0  0  0
  -33.1346  -10.3903    3.0644 H   0  0  0  0  0  0  0  0  0  0  0  0
  -33.3214   -8.8492    9.6714 N   0  0  0  0  0  0  0  0  0  0  0  0
  -32.7354   -8.0682    9.5455 H   0  0  0  0  0  0  0  0  0  0  0  0
  -36.0937   -9.5459   15.0716 Br  0  0  0  0  0  0  0  0  0  0  0  0
  -35.2202   -9.3420   13.4081 C   0  0  0  0  0  0  0  0  0  0  0  0
  -33.9059   -8.8854   13.3674 C   0  0  0  0  0  0  0  0  0  0  0  0
  -33.2619   -8.7331   12.1348 C   0  0  0  0  0  0  0  0  0  0  0  0
  -33.9140   -9.0566   10.9379 C   0  0  0  0  0  0  0  0  0  0  0  0
  -35.2473   -9.4874   11.0009 C   0  0  0  0  0  0  0  0  0  0  0  0
  -35.8973   -9.6407   12.2293 C   0  0  0  0  0  0  0  0  0  0  0  0
 15 16  1  0
 16 17  2  0
 17 18  1  0
 18 19  2  0
 19 13  1  0
 13  1  1  0
  1  3  1  0
  3  4  2  0
  4  5  1  0
  5  6  2  0
  6  7  1  0
  7  8  1  0
  8  9  1  0
  9 10  2  0
 10 11  1  0
 19 20  1  0
 20 21  2  0
 21 16  1  0
 11  3  1  0
 11  7  2  0
 13 14  1  0
  1  2  1  0
  8 12  1  0
M  END
> <minimizedAffinity>
-5.87344

> <CNNscore>
0.7270863056

> <CNNaffinity>
5.3947997093

> <CNN_VS>
3.9224848747

> <CNNaffinity_variance>
0.0503250547

$$$$



 21 23  0  0  0  0  0  0  0  0999 V2000
  -31.1047   -9.2083   12.2904 N   0  0  0  0  0  0  0  0  0  0  0  0
  -31.0360   -9.1215   11.3122 H   0  0  0  0  0  0  0  0  0  0  0  0
  -30.3177   -8.3936   13.1261 C   0  0  0  0  0  0  0  0  0  0  0  0
  -30.3226   -8.6147   14.4719 N   0  0  0  0  0  0  0  0  0  0  0  0
  -29.5659   -7.8269   15.2629 C   0  0  0  0  0  0  0  0  0  0  0  0
  -28.7668   -6.8092   14.8981 N   0  0  0  0  0  0  0  0  0  0  0  0
  -28.7955   -6.6273   13.5697 C   0  0  0  0  0  0  0  0  0  0  0  0
  -28.1100   -5.6830   12.8621 N   0  0  0  0  0  0  0  0  0  0  0  0
  -28.3351   -5.7341   11.5314 N   0  0  0  0  0  0  0  0  0  0  0  0
  -29.1994   -6.7490   11.4077 C   0  0  0  0  0  0  0  0  0  0  0  0
  -29.5208   -7.3506   12.6425 C   0  0  0  0  0  0  0  0  0  0  0  0
  -27.5083   -5.0265   13.2819 H   0  0  0  0  0  0  0  0  0  0  0  0
  -31.9674  -10.1232   12.8388 N   0  0  0  0  0  0  0  0  0  0  0  0
  -31.6065  -10.9823   13.1567 H   0  0  0  0  0  0  0  0  0  0  0  0
  -37.9639   -9.2541   13.6254 Br  0  0  0  0  0  0  0  0  0  0  0  0
  -36.1102   -9.5129   13.3639 C   0  0  0  0  0  0  0  0  0  0  0  0
  -35.6509  -10.0839   12.1804 C   0  0  0  0  0  0  0  0  0  0  0  0
  -34.2784  -10.2766   11.9897 C   0  0  0  0  0  0  0  0  0  0  0  0
  -33.3542   -9.8807   12.9652 C   0  0  0  0  0  0  0  0  0  0  0  0
  -33.8413   -9.3341   14.1615 C   0  0  0  0  0  0  0  0  0  0  0  0
  -35.2118   -9.1398   14.3592 C   0  0  0  0  0  0  0  0  0  0  0  0
 15 16  1  0
 16 17  2  0
 17 18  1  0
 18 19  2  0
 19 13  1  0
 13  1  1  0
  1  3  1  0
  3  4  2  0
  4  5  1  0
  5  6  2  0
  6  7  1  0
  7  8  1  0
  8  9  1  0
  9 10  2  0
 10 11  1  0
 19 20  1  0
 20 21  2  0
 21 16  1  0
 11  3  1  0
 11  7  2  0
 13 14  1  0
  1  2  1  0
  8 12  1  0
M  END
> <minimizedAffinity>
-5.86267

> <CNNscore>
0.6076733470

> <CNNaffinity>
5.4754042625

> <CNN_VS>
3.3272571564

> <CNNaffinity_variance>
0.3085780740

$$$$



 21 23  0  0  0  0  0  0  0  0999 V2000
  -33.2019   -9.4361    8.7245 N   0  0  0  0  0  0  0  0  0  0  0  0
  -34.1701   -9.4933    8.5557 H   0  0  0  0  0  0  0  0  0  0  0  0
  -32.3416   -8.9417    7.7260 C   0  0  0  0  0  0  0  0  0  0  0  0
  -32.2574   -9.5962    6.5324 N   0  0  0  0  0  0  0  0  0  0  0  0
  -31.4287   -9.1141    5.5838 C   0  0  0  0  0  0  0  0  0  0  0  0
  -30.6392   -8.0279    5.6470 N   0  0  0  0  0  0  0  0  0  0  0  0
  -30.7527   -7.4192    6.8366 C   0  0  0  0  0  0  0  0  0  0  0  0
  -30.0937   -6.2952    7.2424 N   0  0  0  0  0  0  0  0  0  0  0  0
  -30.4051   -5.9086    8.4985 N   0  0  0  0  0  0  0  0  0  0  0  0
  -31.2906   -6.8329    8.8907 C   0  0  0  0  0  0  0  0  0  0  0  0
  -31.5536   -7.7985    7.8966 C   0  0  0  0  0  0  0  0  0  0  0  0
  -29.4520   -5.8118    6.6734 H   0  0  0  0  0  0  0  0  0  0  0  0
  -32.6914   -9.8385    9.9326 N   0  0  0  0  0  0  0  0  0  0  0  0
  -31.7628  -10.1633    9.9692 H   0  0  0  0  0  0  0  0  0  0  0  0
  -36.0720   -9.4308   15.0059 Br  0  0  0  0  0  0  0  0  0  0  0  0
  -35.0165   -9.5735   13.4448 C   0  0  0  0  0  0  0  0  0  0  0  0
  -33.6293   -9.6251   13.5490 C   0  0  0  0  0  0  0  0  0  0  0  0
  -32.8498   -9.7284   12.3920 C   0  0  0  0  0  0  0  0  0  0  0  0
  -33.4468   -9.8048   11.1269 C   0  0  0  0  0  0  0  0  0  0  0  0
  -34.8445   -9.7220   11.0438 C   0  0  0  0  0  0  0  0  0  0  0  0
  -35.6295   -9.6174   12.1961 C   0  0  0  0  0  0  0  0  0  0  0  0
 15 16  1  0
 16 17  2  0
 17 18  1  0
 18 19  2  0
 19 13  1  0
 13  1  1  0
  1  3  1  0
  3  4  2  0
  4  5  1  0
  5  6  2  0
  6  7  1  0
  7  8  1  0
  8  9  1  0
  9 10  2  0
 10 11  1  0
 19 20  1  0
 20 21  2  0
 21 16  1  0
 11  3  1  0
 11  7  2  0
 13 14  1  0
  1  2  1  0
  8 12  1  0
M  END
> <minimizedAffinity>
-5.17656

> <CNNscore>
0.5372878909

> <CNNaffinity>
5.1067695618

> <CNN_VS>
2.7438054085

> <CNNaffinity_variance>
0.1735554934

$$$$



 21 23  0  0  0  0  0  0  0  0999 V2000
  -34.3028  -10.7813   12.1370 N   0  0  0  0  0  0  0  0  0  0  0  0
  -34.1766  -11.7575   12.1175 H   0  0  0  0  0  0  0  0  0  0  0  0
  -35.3806  -10.2253   12.8516 C   0  0  0  0  0  0  0  0  0  0  0  0
  -35.2744  -10.0630   14.2017 N   0  0  0  0  0  0  0  0  0  0  0  0
  -36.3140   -9.5307   14.8761 C   0  0  0  0  0  0  0  0  0  0  0  0
  -37.4942   -9.1138   14.3855 N   0  0  0  0  0  0  0  0  0  0  0  0
  -37.5542   -9.2946   13.0580 C   0  0  0  0  0  0  0  0  0  0  0  0
  -38.6035   -8.9879   12.2411 N   0  0  0  0  0  0  0  0  0  0  0  0
  -38.3825   -9.2832   10.9418 N   0  0  0  0  0  0  0  0  0  0  0  0
  -37.1469   -9.7985   10.9527 C   0  0  0  0  0  0  0  0  0  0  0  0
  -36.5749   -9.8270   12.2418 C   0  0  0  0  0  0  0  0  0  0  0  0
  -39.4422   -8.5892   12.5679 H   0  0  0  0  0  0  0  0  0  0  0  0
  -33.4282   -9.9633   11.4677 N   0  0  0  0  0  0  0  0  0  0  0  0
  -32.7813   -9.4351   11.9890 H   0  0  0  0  0  0  0  0  0  0  0  0
  -33.6865   -9.4162    5.3877 Br  0  0  0  0  0  0  0  0  0  0  0  0
  -33.5869   -9.5921    7.2667 C   0  0  0  0  0  0  0  0  0  0  0  0
  -33.1673  -10.7946    7.8284 C   0  0  0  0  0  0  0  0  0  0  0  0
  -33.0964  -10.9234    9.2196 C   0  0  0  0  0  0  0  0  0  0  0  0
  -33.4198   -9.8492   10.0588 C   0  0  0  0  0  0  0  0  0  0  0  0
  -33.8675   -8.6566    9.4718 C   0  0  0  0  0  0  0  0  0  0  0  0
  -33.9419   -8.5215    8.0821 C   0  0  0  0  0  0  0  0  0  0  0  0
 15 16  1  0
 16 17  2  0
 17 18  1  0
 18 19  2  0
 19 13  1  0
 13  1  1  0
  1  3  1  0
  3  4  2  0
  4  5  1  0
  5  6  2  0
  6  7  1  0
  7  8  1  0
  8  9  1  0
  9 10  2  0
 10 11  1  0
 19 20  1  0
 20 21  2  0
 21 16  1  0
 11  3  1  0
 11  7  2  0
 13 14  1  0
  1  2  1  0
  8 12  1  0
M  END
> <minimizedAffinity>
-6.78363

> <CNNscore>
0.4263272285

> <CNNaffinity>
4.8596348763

> <CNN_VS>
2.0717947483

> <CNNaffinity_variance>
0.6431327462

$$$$



 21 23  0  0  0  0  0  0  0  0999 V2000
  -33.3310   -9.9619    4.3670 N   0  0  0  0  0  0  0  0  0  0  0  0
  -33.0365  -10.9000    4.4171 H   0  0  0  0  0  0  0  0  0  0  0  0
  -32.8496   -9.1271    3.3409 C   0  0  0  0  0  0  0  0  0  0  0  0
  -33.4849   -7.9476    3.0857 N   0  0  0  0  0  0  0  0  0  0  0  0
  -33.0157   -7.1566    2.0992 C   0  0  0  0  0  0  0  0  0  0  0  0
  -31.9596   -7.3720    1.2956 N   0  0  0  0  0  0  0  0  0  0  0  0
  -31.3690   -8.5418    1.5805 C   0  0  0  0  0  0  0  0  0  0  0  0
  -30.2767   -9.0750    0.9599 N   0  0  0  0  0  0  0  0  0  0  0  0
  -29.9021  -10.2732    1.4579 N   0  0  0  0  0  0  0  0  0  0  0  0
  -30.8011  -10.4956    2.4246 C   0  0  0  0  0  0  0  0  0  0  0  0
  -31.7386   -9.4495    2.5543 C   0  0  0  0  0  0  0  0  0  0  0  0
  -29.8064   -8.6284    0.2192 H   0  0  0  0  0  0  0  0  0  0  0  0
  -34.2104   -9.4685    5.2972 N   0  0  0  0  0  0  0  0  0  0  0  0
  -35.1704   -9.4533    5.0792 H   0  0  0  0  0  0  0  0  0  0  0  0
  -32.6718   -7.2361   10.7727 Br  0  0  0  0  0  0  0  0  0  0  0  0
  -33.1279   -7.9325    9.0761 C   0  0  0  0  0  0  0  0  0  0  0  0
  -32.4056   -7.5445    7.9512 C   0  0  0  0  0  0  0  0  0  0  0  0
  -32.7463   -8.0595    6.6959 C   0  0  0  0  0  0  0  0  0  0  0  0
  -33.7920   -8.9812    6.5564 C   0  0  0  0  0  0  0  0  0  0  0  0
  -34.5243   -9.3358    7.6988 C   0  0  0  0  0  0  0  0  0  0  0  0
  -34.1900   -8.8239    8.9562 C   0  0  0  0  0  0  0  0  0  0  0  0
 15 16  1  0
 16 17  2  0
 17 18  1  0
 18 19  2  0
 19 13  1  0
 13  1  1  0
  1  3  1  0
  3  4  2  0
  4  5  1  0
  5  6  2  0
  6  7  1  0
  7  8  1  0
  8  9  1  0
  9 10  2  0
 10 11  1  0
 19 20  1  0
 20 21  2  0
 21 16  1  0
 11  3  1  0
 11  7  2  0
 13 14  1  0
  1  2  1  0
  8 12  1  0
M  END
> <minimizedAffinity>
-6.04374

> <CNNscore>
0.4157598317

> <CNNaffinity>
4.3026785851

> <CNN_VS>
1.7888809443

> <CNNaffinity_variance>
0.3478028774

$$$$



 21 23  0  0  0  0  0  0  0  0999 V2000
  -30.4913   -8.0648    5.8838 N   0  0  0  0  0  0  0  0  0  0  0  0
  -29.6586   -8.4572    6.2328 H   0  0  0  0  0  0  0  0  0  0  0  0
  -31.1559   -8.6722    4.8017 C   0  0  0  0  0  0  0  0  0  0  0  0
  -30.8236   -8.3152    3.5280 N   0  0  0  0  0  0  0  0  0  0  0  0
  -31.4680   -8.9026    2.4991 C   0  0  0  0  0  0  0  0  0  0  0  0
  -32.4339   -9.8364    2.5507 N   0  0  0  0  0  0  0  0  0  0  0  0
  -32.7289  -10.1538    3.8198 C   0  0  0  0  0  0  0  0  0  0  0  0
  -33.6614  -11.0585    4.2372 N   0  0  0  0  0  0  0  0  0  0  0  0
  -33.7437  -11.1707    5.5806 N   0  0  0  0  0  0  0  0  0  0  0  0
  -32.8279  -10.2966    6.0157 C   0  0  0  0  0  0  0  0  0  0  0  0
  -32.1570   -9.6353    4.9657 C   0  0  0  0  0  0  0  0  0  0  0  0
  -34.2212  -11.5801    3.6177 H   0  0  0  0  0  0  0  0  0  0  0  0
  -31.0038   -6.9263    6.4522 N   0  0  0  0  0  0  0  0  0  0  0  0
  -31.0464   -6.1051    5.9107 H   0  0  0  0  0  0  0  0  0  0  0  0
  -32.8133   -6.9437   12.2881 Br  0  0  0  0  0  0  0  0  0  0  0  0
  -32.2707   -6.9275   10.4779 C   0  0  0  0  0  0  0  0  0  0  0  0
  -33.1477   -7.3621    9.4881 C   0  0  0  0  0  0  0  0  0  0  0  0
  -32.7433   -7.3514    8.1490 C   0  0  0  0  0  0  0  0  0  0  0  0
  -31.4730   -6.8861    7.7850 C   0  0  0  0  0  0  0  0  0  0  0  0
  -30.5958   -6.4801    8.8013 C   0  0  0  0  0  0  0  0  0  0  0  0
  -30.9931   -6.4894   10.1419 C   0  0  0  0  0  0  0  0  0  0  0  0
 15 16  1  0
 16 17  2  0
 17 18  1  0
 18 19  2  0
 19 13  1  0
 13  1  1  0
  1  3  1  0
  3  4  2  0
  4  5  1  0
  5  6  2  0
  6  7  1  0
  7  8  1  0
  8  9  1  0
  9 10  2  0
 10 11  1  0
 19 20  1  0
 20 21  2  0
 21 16  1  0
 11  3  1  0
 11  7  2  0
 13 14  1  0
  1  2  1  0
  8 12  1  0
M  END
> <minimizedAffinity>
-5.38513

> <CNNscore>
0.3617091477

> <CNNaffinity>
4.4542808533

> <CNN_VS>
1.6111540794

> <CNNaffinity_variance>
0.1180219427

$$$$



 21 23  0  0  0  0  0  0  0  0999 V2000
  -33.2968   -9.2374    8.0075 N   0  0  0  0  0  0  0  0  0  0  0  0
  -32.8427   -8.3698    7.9057 H   0  0  0  0  0  0  0  0  0  0  0  0
  -33.2393  -10.1876    6.9706 C   0  0  0  0  0  0  0  0  0  0  0  0
  -33.1189  -11.5100    7.2820 N   0  0  0  0  0  0  0  0  0  0  0  0
  -33.0633  -12.4113    6.2802 C   0  0  0  0  0  0  0  0  0  0  0  0
  -33.1154  -12.1834    4.9563 N   0  0  0  0  0  0  0  0  0  0  0  0
  -33.2309  -10.8725    4.6981 C   0  0  0  0  0  0  0  0  0  0  0  0
  -33.3059  -10.2887    3.4668 N   0  0  0  0  0  0  0  0  0  0  0  0
  -33.4154   -8.9432    3.5113 N   0  0  0  0  0  0  0  0  0  0  0  0
  -33.4034   -8.6801    4.8239 C   0  0  0  0  0  0  0  0  0  0  0  0
  -33.2965   -9.8422    5.6163 C   0  0  0  0  0  0  0  0  0  0  0  0
  -33.2825  -10.7998    2.6258 H   0  0  0  0  0  0  0  0  0  0  0  0
  -33.9854   -9.5200    9.1599 N   0  0  0  0  0  0  0  0  0  0  0  0
  -34.9161   -9.8332    9.0901 H   0  0  0  0  0  0  0  0  0  0  0  0
  -31.4686   -8.6170   14.6538 Br  0  0  0  0  0  0  0  0  0  0  0  0
  -32.2463   -8.9169   12.9577 C   0  0  0  0  0  0  0  0  0  0  0  0
  -31.6298   -9.7796   12.0559 C   0  0  0  0  0  0  0  0  0  0  0  0
  -32.2060   -9.9985   10.8001 C   0  0  0  0  0  0  0  0  0  0  0  0
  -33.4108   -9.3788   10.4436 C   0  0  0  0  0  0  0  0  0  0  0  0
  -33.9991   -8.4915   11.3567 C   0  0  0  0  0  0  0  0  0  0  0  0
  -33.4279   -8.2672   12.6131 C   0  0  0  0  0  0  0  0  0  0  0  0
 15 16  1  0
 16 17  2  0
 17 18  1  0
 18 19  2  0
 19 13  1  0
 13  1  1  0
  1  3  1  0
  3  4  2  0
  4  5  1  0
  5  6  2  0
  6  7  1  0
  7  8  1  0
  8  9  1  0
  9 10  2  0
 10 11  1  0
 19 20  1  0
 20 21  2  0
 21 16  1  0
 11  3  1  0
 11  7  2  0
 13 14  1  0
  1  2  1  0
  8 12  1  0
M  END
> <minimizedAffinity>
-5.42425

> <CNNscore>
0.3452051282

> <CNNaffinity>
4.6838469505

> <CNN_VS>
1.6168880463

> <CNNaffinity_variance>
0.0106218681

$$$$



 21 23  0  0  0  0  0  0  0  0999 V2000
  -30.8518   -9.7144   11.8161 N   0  0  0  0  0  0  0  0  0  0  0  0
  -30.7273   -9.8035   10.8436 H   0  0  0  0  0  0  0  0  0  0  0  0
  -30.1198   -8.7498   12.5338 C   0  0  0  0  0  0  0  0  0  0  0  0
  -30.4280   -7.4296   12.3845 N   0  0  0  0  0  0  0  0  0  0  0  0
  -29.7188   -6.5143   13.0761 C   0  0  0  0  0  0  0  0  0  0  0  0
  -28.7064   -6.7262   13.9348 N   0  0  0  0  0  0  0  0  0  0  0  0
  -28.4373   -8.0351   14.0478 C   0  0  0  0  0  0  0  0  0  0  0  0
  -27.4719   -8.6037   14.8270 N   0  0  0  0  0  0  0  0  0  0  0  0
  -27.4286   -9.9507   14.7388 N   0  0  0  0  0  0  0  0  0  0  0  0
  -28.4043  -10.2301   13.8657 C   0  0  0  0  0  0  0  0  0  0  0  0
  -29.0742   -9.0781   13.4033 C   0  0  0  0  0  0  0  0  0  0  0  0
  -26.8644   -8.0814   15.3992 H   0  0  0  0  0  0  0  0  0  0  0  0
  -31.7388  -10.5304   12.4714 N   0  0  0  0  0  0  0  0  0  0  0  0
  -31.4263  -11.4065   12.7938 H   0  0  0  0  0  0  0  0  0  0  0  0
  -37.5507   -9.1112   13.7127 Br  0  0  0  0  0  0  0  0  0  0  0  0
  -35.7548   -9.5405   13.3103 C   0  0  0  0  0  0  0  0  0  0  0  0
  -35.4473  -10.1804   12.1130 C   0  0  0  0  0  0  0  0  0  0  0  0
  -34.1174  -10.4993   11.8181 C   0  0  0  0  0  0  0  0  0  0  0  0
  -33.0840  -10.1622   12.7018 C   0  0  0  0  0  0  0  0  0  0  0  0
  -33.4201   -9.5438   13.9150 C   0  0  0  0  0  0  0  0  0  0  0  0
  -34.7473   -9.2233   14.2166 C   0  0  0  0  0  0  0  0  0  0  0  0
 15 16  1  0
 16 17  2  0
 17 18  1  0
 18 19  2  0
 19 13  1  0
 13  1  1  0
  1  3  1  0
  3  4  2  0
  4  5  1  0
  5  6  2  0
  6  7  1  0
  7  8  1  0
  8  9  1  0
  9 10  2  0
 10 11  1  0
 19 20  1  0
 20 21  2  0
 21 16  1  0
 11  3  1  0
 11  7  2  0
 13 14  1  0
  1  2  1  0
  8 12  1  0
M  END
> <minimizedAffinity>
-5.59871

> <CNNscore>
0.3212034702

> <CNNaffinity>
5.0033206940

> <CNN_VS>
1.6070839167

> <CNNaffinity_variance>
0.0859876350

$$$$



 21 23  0  0  0  0  0  0  0  0999 V2000
  -32.1256   -9.6320    9.8939 N   0  0  0  0  0  0  0  0  0  0  0  0
  -31.1887   -9.8009    9.6430 H   0  0  0  0  0  0  0  0  0  0  0  0
  -32.4367   -9.1841   11.1915 C   0  0  0  0  0  0  0  0  0  0  0  0
  -33.0056  -10.0497   12.0788 N   0  0  0  0  0  0  0  0  0  0  0  0
  -33.3008   -9.6089   13.3187 C   0  0  0  0  0  0  0  0  0  0  0  0
  -33.1022   -8.3821   13.8315 N   0  0  0  0  0  0  0  0  0  0  0  0
  -32.5446   -7.5663   12.9249 C   0  0  0  0  0  0  0  0  0  0  0  0
  -32.2118   -6.2551   13.1051 N   0  0  0  0  0  0  0  0  0  0  0  0
  -31.6653   -5.6800   12.0119 N   0  0  0  0  0  0  0  0  0  0  0  0
  -31.6627   -6.6734   11.1146 C   0  0  0  0  0  0  0  0  0  0  0  0
  -32.1927   -7.8768   11.6254 C   0  0  0  0  0  0  0  0  0  0  0  0
  -32.3563   -5.7739   13.9517 H   0  0  0  0  0  0  0  0  0  0  0  0
  -33.1275   -9.8334    8.9787 N   0  0  0  0  0  0  0  0  0  0  0  0
  -33.8888  -10.4053    9.2289 H   0  0  0  0  0  0  0  0  0  0  0  0
  -32.9589   -7.5834    3.3005 Br  0  0  0  0  0  0  0  0  0  0  0  0
  -33.0143   -8.2600    5.0642 C   0  0  0  0  0  0  0  0  0  0  0  0
  -32.2045   -7.6984    6.0472 C   0  0  0  0  0  0  0  0  0  0  0  0
  -32.2455   -8.2023    7.3517 C   0  0  0  0  0  0  0  0  0  0  0  0
  -33.1094   -9.2518    7.6904 C   0  0  0  0  0  0  0  0  0  0  0  0
  -33.8951   -9.8213    6.6777 C   0  0  0  0  0  0  0  0  0  0  0  0
  -33.8581   -9.3234    5.3716 C   0  0  0  0  0  0  0  0  0  0  0  0
 15 16  1  0
 16 17  2  0
 17 18  1  0
 18 19  2  0
 19 13  1  0
 13  1  1  0
  1  3  1  0
  3  4  2  0
  4  5  1  0
  5  6  2  0
  6  7  1  0
  7  8  1  0
  8  9  1  0
  9 10  2  0
 10 11  1  0
 19 20  1  0
 20 21  2  0
 21 16  1  0
 11  3  1  0
 11  7  2  0
 13 14  1  0
  1  2  1  0
  8 12  1  0
M  END
> <minimizedAffinity>
-5.31631

> <CNNscore>
0.3210502863

> <CNNaffinity>
4.8883671761

> <CNN_VS>
1.5694116354

> <CNNaffinity_variance>
0.1499625444

$$$$
