


 45 49  0  0  0  0  0  0  0  0999 V2000
  -26.0352  -54.3755  -12.3064 C   0  0  0  0  0  0  0  0  0  0  0  0
  -24.3692  -52.5378  -12.5862 N   0  0  0  0  0  0  0  0  0  0  0  0
  -25.4042  -53.0387  -11.8304 C   0  0  0  0  0  0  0  0  0  0  0  0
  -25.7298  -52.5260  -10.7578 O   0  0  0  0  0  0  0  0  0  0  0  0
  -24.0958  -53.0189  -13.4005 H   0  0  0  0  0  0  0  0  0  0  0  0
  -23.6691  -51.3219  -12.2185 C   0  0  0  0  0  0  0  0  0  0  0  0
  -18.5281  -47.2790  -11.5705 N   0  0  0  0  0  0  0  0  0  0  0  0
  -19.4800  -48.2885  -11.7122 C   0  0  0  0  0  0  0  0  0  0  0  0
  -20.8276  -47.9855  -11.7785 C   0  0  0  0  0  0  0  0  0  0  0  0
  -21.7396  -49.0291  -11.9070 C   0  0  0  0  0  0  0  0  0  0  0  0
  -21.2964  -50.3664  -11.9608 C   0  0  0  0  0  0  0  0  0  0  0  0
  -22.1599  -51.4968  -12.1066 C   0  0  0  0  0  0  0  0  0  0  0  0
  -21.5966  -52.7856  -12.0759 C   0  0  0  0  0  0  0  0  0  0  0  0
  -20.2238  -52.9588  -11.9587 C   0  0  0  0  0  0  0  0  0  0  0  0
  -19.3933  -51.8462  -11.8580 C   0  0  0  0  0  0  0  0  0  0  0  0
  -19.8977  -50.5564  -11.8523 C   0  0  0  0  0  0  0  0  0  0  0  0
  -19.0175  -49.5460  -11.7371 N   0  0  0  0  0  0  0  0  0  0  0  0
  -18.8105  -46.3361  -11.5459 H   0  0  0  0  0  0  0  0  0  0  0  0
  -17.5739  -47.5092  -11.4951 H   0  0  0  0  0  0  0  0  0  0  0  0
  -26.8314  -54.9158  -11.1946 N   0  0  0  0  0  0  0  0  0  0  0  0
  -26.6770  -56.2203  -10.7595 C   0  0  0  0  0  0  0  0  0  0  0  0
  -25.7972  -56.9749  -11.1568 O   0  0  0  0  0  0  0  0  0  0  0  0
  -27.4901  -54.3355  -10.7491 H   0  0  0  0  0  0  0  0  0  0  0  0
  -27.6797  -56.6959   -9.7667 C   0  0  0  0  0  0  0  0  0  0  0  0
  -29.0023  -56.9719  -10.1414 C   0  0  0  0  0  0  0  0  0  0  0  0
  -29.9196  -57.4202   -9.1878 C   0  0  0  0  0  0  0  0  0  0  0  0
  -29.5126  -57.5804   -7.8619 C   0  0  0  0  0  0  0  0  0  0  0  0
  -30.4323  -58.0405   -6.9101 N   0  0  0  0  0  0  0  0  0  0  0  0
  -30.1245  -58.2318   -5.5919 C   0  0  0  0  0  0  0  0  0  0  0  0
  -30.9456  -58.6496   -4.7808 O   0  0  0  0  0  0  0  0  0  0  0  0
  -28.7415  -57.9152   -5.1695 C   0  0  0  0  0  0  0  0  0  0  0  0
  -27.8359  -57.4693   -6.0516 C   0  0  0  0  0  0  0  0  0  0  0  0
  -26.5395  -57.1584   -5.7048 O   0  0  0  0  0  0  0  0  0  0  0  0
  -28.1972  -57.2877   -7.4661 C   0  0  0  0  0  0  0  0  0  0  0  0
  -27.2854  -56.8381   -8.4287 C   0  0  0  0  0  0  0  0  0  0  0  0
  -31.3503  -58.2366   -7.2068 H   0  0  0  0  0  0  0  0  0  0  0  0
  -26.2558  -57.2557   -4.8171 H   0  0  0  0  0  0  0  0  0  0  0  0
  -26.7701  -54.3356  -13.6617 C   0  0  0  0  0  0  0  0  0  0  0  0
  -28.1080  -55.0474  -13.6290 C   0  0  0  0  0  0  0  0  0  0  0  0
  -29.2815  -54.3577  -13.2892 C   0  0  0  0  0  0  0  0  0  0  0  0
  -30.5148  -55.0144  -13.2951 C   0  0  0  0  0  0  0  0  0  0  0  0
  -30.5813  -56.3614  -13.6498 C   0  0  0  0  0  0  0  0  0  0  0  0
  -32.2504  -57.2449  -13.6785 Br  0  0  0  0  0  0  0  0  0  0  0  0
  -29.4250  -57.0592  -13.9880 C   0  0  0  0  0  0  0  0  0  0  0  0
  -28.1926  -56.4051  -13.9734 C   0  0  0  0  0  0  0  0  0  0  0  0
  7  8  1  0
  8  9  2  0
  9 10  1  0
 10 11  2  0
 11 12  1  0
 12  6  1  0
  6  2  1  0
  2  3  1  0
  3  4  2  0
  3  1  1  0
  1 38  1  0
 38 39  1  0
 39 40  2  0
 40 41  1  0
 41 42  2  0
 42 43  1  0
 42 44  1  0
 44 45  2  0
  1 20  1  0
 20 21  1  0
 21 22  2  0
 21 24  1  0
 24 25  2  0
 25 26  1  0
 26 27  2  0
 27 28  1  0
 28 29  1  0
 29 30  2  0
 29 31  1  0
 31 32  2  0
 32 33  1  0
 32 34  1  0
 34 35  2  0
 12 13  2  0
 13 14  1  0
 14 15  2  0
 15 16  1  0
 16 17  2  0
 17  8  1  0
 16 11  1  0
 45 39  1  0
 35 24  1  0
 34 27  1  0
  7 18  1  0
  7 19  1  0
  2  5  1  0
 20 23  1  0
 28 36  1  0
 33 37  1  0
M  END
> <minimizedAffinity>
-9.47003

> <CNNscore>
0.8835709691

> <CNNaffinity>
7.8860974312

> <CNN_VS>
6.9679269791

> <CNNaffinity_variance>
0.0517260432

$$$$



 45 49  0  0  0  0  0  0  0  0999 V2000
  -26.3507  -53.8060  -11.3600 C   0  0  0  0  0  0  0  0  0  0  0  0
  -24.7323  -52.3084  -12.5299 N   0  0  0  0  0  0  0  0  0  0  0  0
  -25.4877  -52.5155  -11.3986 C   0  0  0  0  0  0  0  0  0  0  0  0
  -25.3874  -51.7855  -10.4104 O   0  0  0  0  0  0  0  0  0  0  0  0
  -24.7916  -52.9559  -13.2691 H   0  0  0  0  0  0  0  0  0  0  0  0
  -23.8513  -51.1642  -12.6653 C   0  0  0  0  0  0  0  0  0  0  0  0
  -18.4379  -47.6728  -11.3616 N   0  0  0  0  0  0  0  0  0  0  0  0
  -19.4629  -48.5782  -11.6355 C   0  0  0  0  0  0  0  0  0  0  0  0
  -20.7623  -48.1413  -11.8170 C   0  0  0  0  0  0  0  0  0  0  0  0
  -21.7525  -49.0849  -12.0755 C   0  0  0  0  0  0  0  0  0  0  0  0
  -21.4355  -50.4570  -12.1430 C   0  0  0  0  0  0  0  0  0  0  0  0
  -22.3841  -51.4911  -12.4178 C   0  0  0  0  0  0  0  0  0  0  0  0
  -21.9520  -52.8295  -12.3877 C   0  0  0  0  0  0  0  0  0  0  0  0
  -20.6203  -53.1415  -12.1478 C   0  0  0  0  0  0  0  0  0  0  0  0
  -19.7016  -52.1203  -11.9218 C   0  0  0  0  0  0  0  0  0  0  0  0
  -20.0789  -50.7878  -11.9100 C   0  0  0  0  0  0  0  0  0  0  0  0
  -19.1222  -49.8737  -11.6691 N   0  0  0  0  0  0  0  0  0  0  0  0
  -18.6301  -46.7080  -11.3243 H   0  0  0  0  0  0  0  0  0  0  0  0
  -17.5220  -47.9986  -11.2054 H   0  0  0  0  0  0  0  0  0  0  0  0
  -26.8310  -54.0647  -12.7254 N   0  0  0  0  0  0  0  0  0  0  0  0
  -26.2495  -55.0308  -13.5274 C   0  0  0  0  0  0  0  0  0  0  0  0
  -25.4014  -55.8246  -13.1375 O   0  0  0  0  0  0  0  0  0  0  0  0
  -27.5844  -53.5378  -13.0774 H   0  0  0  0  0  0  0  0  0  0  0  0
  -26.6974  -55.0508  -14.9473 C   0  0  0  0  0  0  0  0  0  0  0  0
  -27.8731  -55.7111  -15.3315 C   0  0  0  0  0  0  0  0  0  0  0  0
  -28.2695  -55.7095  -16.6712 C   0  0  0  0  0  0  0  0  0  0  0  0
  -27.4827  -55.0565  -17.6219 C   0  0  0  0  0  0  0  0  0  0  0  0
  -27.8887  -55.0476  -18.9630 N   0  0  0  0  0  0  0  0  0  0  0  0
  -27.1869  -54.4316  -19.9615 C   0  0  0  0  0  0  0  0  0  0  0  0
  -27.5721  -54.4266  -21.1269 O   0  0  0  0  0  0  0  0  0  0  0  0
  -25.9256  -53.7561  -19.5816 C   0  0  0  0  0  0  0  0  0  0  0  0
  -25.5040  -53.7475  -18.3091 C   0  0  0  0  0  0  0  0  0  0  0  0
  -24.3364  -53.1358  -17.9090 O   0  0  0  0  0  0  0  0  0  0  0  0
  -26.2911  -54.4088  -17.2568 C   0  0  0  0  0  0  0  0  0  0  0  0
  -25.9017  -54.4166  -15.9120 C   0  0  0  0  0  0  0  0  0  0  0  0
  -28.7251  -55.5102  -19.1992 H   0  0  0  0  0  0  0  0  0  0  0  0
  -23.7965  -52.6996  -18.5384 H   0  0  0  0  0  0  0  0  0  0  0  0
  -25.7177  -55.0263  -10.6607 C   0  0  0  0  0  0  0  0  0  0  0  0
  -26.5238  -55.5089   -9.4711 C   0  0  0  0  0  0  0  0  0  0  0  0
  -27.8418  -55.0717   -9.2704 C   0  0  0  0  0  0  0  0  0  0  0  0
  -28.5883  -55.5488   -8.1899 C   0  0  0  0  0  0  0  0  0  0  0  0
  -28.0235  -56.4720   -7.3107 C   0  0  0  0  0  0  0  0  0  0  0  0
  -29.0387  -57.1335   -5.8618 Br  0  0  0  0  0  0  0  0  0  0  0  0
  -26.7163  -56.9139   -7.4963 C   0  0  0  0  0  0  0  0  0  0  0  0
  -25.9683  -56.4305   -8.5705 C   0  0  0  0  0  0  0  0  0  0  0  0
  7  8  1  0
  8  9  2  0
  9 10  1  0
 10 11  2  0
 11 12  1  0
 12  6  1  0
  6  2  1  0
  2  3  1  0
  3  4  2  0
  3  1  1  0
  1 38  1  0
 38 39  1  0
 39 40  2  0
 40 41  1  0
 41 42  2  0
 42 43  1  0
 42 44  1  0
 44 45  2  0
  1 20  1  0
 20 21  1  0
 21 22  2  0
 21 24  1  0
 24 25  2  0
 25 26  1  0
 26 27  2  0
 27 28  1  0
 28 29  1  0
 29 30  2  0
 29 31  1  0
 31 32  2  0
 32 33  1  0
 32 34  1  0
 34 35  2  0
 12 13  2  0
 13 14  1  0
 14 15  2  0
 15 16  1  0
 16 17  2  0
 17  8  1  0
 16 11  1  0
 45 39  1  0
 35 24  1  0
 34 27  1  0
  7 18  1  0
  7 19  1  0
  2  5  1  0
 20 23  1  0
 28 36  1  0
 33 37  1  0
M  END
> <minimizedAffinity>
-10.92091

> <CNNscore>
0.8371469378

> <CNNaffinity>
7.5264897346

> <CNN_VS>
6.3007779121

> <CNNaffinity_variance>
0.1107241809

$$$$



 45 49  0  0  0  0  0  0  0  0999 V2000
  -26.3479  -54.3121  -11.9153 C   0  0  0  0  0  0  0  0  0  0  0  0
  -24.5081  -52.6443  -12.1695 N   0  0  0  0  0  0  0  0  0  0  0  0
  -25.6429  -52.9995  -11.4771 C   0  0  0  0  0  0  0  0  0  0  0  0
  -26.0103  -52.3819  -10.4757 O   0  0  0  0  0  0  0  0  0  0  0  0
  -24.2114  -53.2066  -12.9211 H   0  0  0  0  0  0  0  0  0  0  0  0
  -23.7362  -51.4658  -11.8245 C   0  0  0  0  0  0  0  0  0  0  0  0
  -18.4300  -47.5998  -11.5212 N   0  0  0  0  0  0  0  0  0  0  0  0
  -19.4229  -48.5751  -11.6106 C   0  0  0  0  0  0  0  0  0  0  0  0
  -20.7601  -48.2327  -11.5260 C   0  0  0  0  0  0  0  0  0  0  0  0
  -21.7132  -49.2439  -11.6079 C   0  0  0  0  0  0  0  0  0  0  0  0
  -21.3204  -50.5886  -11.7666 C   0  0  0  0  0  0  0  0  0  0  0  0
  -22.2298  -51.6868  -11.8746 C   0  0  0  0  0  0  0  0  0  0  0  0
  -21.7076  -52.9904  -11.9593 C   0  0  0  0  0  0  0  0  0  0  0  0
  -20.3362  -53.2063  -11.9902 C   0  0  0  0  0  0  0  0  0  0  0  0
  -19.4648  -52.1228  -11.9245 C   0  0  0  0  0  0  0  0  0  0  0  0
  -19.9247  -50.8214  -11.8096 C   0  0  0  0  0  0  0  0  0  0  0  0
  -19.0056  -49.8421  -11.7390 N   0  0  0  0  0  0  0  0  0  0  0  0
  -18.6783  -46.6519  -11.4256 H   0  0  0  0  0  0  0  0  0  0  0  0
  -17.4808  -47.8591  -11.5536 H   0  0  0  0  0  0  0  0  0  0  0  0
  -26.5315  -55.1435  -10.7166 N   0  0  0  0  0  0  0  0  0  0  0  0
  -27.7460  -55.2049  -10.0562 C   0  0  0  0  0  0  0  0  0  0  0  0
  -28.7796  -54.6973  -10.4751 O   0  0  0  0  0  0  0  0  0  0  0  0
  -25.7722  -55.6692  -10.3756 H   0  0  0  0  0  0  0  0  0  0  0  0
  -27.7390  -55.9211   -8.7507 C   0  0  0  0  0  0  0  0  0  0  0  0
  -26.5592  -56.0726   -8.0086 C   0  0  0  0  0  0  0  0  0  0  0  0
  -26.5848  -56.7467   -6.7852 C   0  0  0  0  0  0  0  0  0  0  0  0
  -27.7883  -57.2754   -6.3148 C   0  0  0  0  0  0  0  0  0  0  0  0
  -27.8127  -57.9416   -5.0823 N   0  0  0  0  0  0  0  0  0  0  0  0
  -28.9428  -58.4870   -4.5398 C   0  0  0  0  0  0  0  0  0  0  0  0
  -28.9398  -59.0535   -3.4509 O   0  0  0  0  0  0  0  0  0  0  0  0
  -30.1931  -58.3660   -5.3231 C   0  0  0  0  0  0  0  0  0  0  0  0
  -30.2067  -57.7389   -6.5078 C   0  0  0  0  0  0  0  0  0  0  0  0
  -31.3440  -57.6049   -7.2735 O   0  0  0  0  0  0  0  0  0  0  0  0
  -28.9747  -57.1510   -7.0562 C   0  0  0  0  0  0  0  0  0  0  0  0
  -28.9388  -56.4746   -8.2814 C   0  0  0  0  0  0  0  0  0  0  0  0
  -26.9700  -58.0212   -4.5796 H   0  0  0  0  0  0  0  0  0  0  0  0
  -32.1566  -57.9608   -6.9717 H   0  0  0  0  0  0  0  0  0  0  0  0
  -27.6131  -54.1475  -12.7818 C   0  0  0  0  0  0  0  0  0  0  0  0
  -27.5668  -54.9676  -14.0559 C   0  0  0  0  0  0  0  0  0  0  0  0
  -26.3426  -55.2801  -14.6659 C   0  0  0  0  0  0  0  0  0  0  0  0
  -26.3083  -56.0655  -15.8211 C   0  0  0  0  0  0  0  0  0  0  0  0
  -27.4970  -56.5495  -16.3660 C   0  0  0  0  0  0  0  0  0  0  0  0
  -27.4504  -57.6285  -17.9155 Br  0  0  0  0  0  0  0  0  0  0  0  0
  -28.7194  -56.2465  -15.7724 C   0  0  0  0  0  0  0  0  0  0  0  0
  -28.7538  -55.4548  -14.6239 C   0  0  0  0  0  0  0  0  0  0  0  0
  7  8  1  0
  8  9  2  0
  9 10  1  0
 10 11  2  0
 11 12  1  0
 12  6  1  0
  6  2  1  0
  2  3  1  0
  3  4  2  0
  3  1  1  0
  1 38  1  0
 38 39  1  0
 39 40  2  0
 40 41  1  0
 41 42  2  0
 42 43  1  0
 42 44  1  0
 44 45  2  0
  1 20  1  0
 20 21  1  0
 21 22  2  0
 21 24  1  0
 24 25  2  0
 25 26  1  0
 26 27  2  0
 27 28  1  0
 28 29  1  0
 29 30  2  0
 29 31  1  0
 31 32  2  0
 32 33  1  0
 32 34  1  0
 34 35  2  0
 12 13  2  0
 13 14  1  0
 14 15  2  0
 15 16  1  0
 16 17  2  0
 17  8  1  0
 16 11  1  0
 45 39  1  0
 35 24  1  0
 34 27  1  0
  7 18  1  0
  7 19  1  0
  2  5  1  0
 20 23  1  0
 28 36  1  0
 33 37  1  0
M  END
> <minimizedAffinity>
-10.54893

> <CNNscore>
0.7126520276

> <CNNaffinity>
7.2816233635

> <CNN_VS>
5.1892638206

> <CNNaffinity_variance>
0.1311019957

$$$$



 45 49  0  0  0  0  0  0  0  0999 V2000
  -26.3508  -54.5588  -11.9693 C   0  0  0  0  0  0  0  0  0  0  0  0
  -24.5020  -52.8868  -12.1012 N   0  0  0  0  0  0  0  0  0  0  0  0
  -25.6644  -53.2597  -11.4663 C   0  0  0  0  0  0  0  0  0  0  0  0
  -26.0728  -52.6695  -10.4641 O   0  0  0  0  0  0  0  0  0  0  0  0
  -24.1746  -53.4285  -12.8553 H   0  0  0  0  0  0  0  0  0  0  0  0
  -23.7449  -51.7192  -11.6922 C   0  0  0  0  0  0  0  0  0  0  0  0
  -18.5732  -47.6730  -11.4168 N   0  0  0  0  0  0  0  0  0  0  0  0
  -19.5349  -48.6771  -11.5278 C   0  0  0  0  0  0  0  0  0  0  0  0
  -20.8709  -48.4052  -11.2963 C   0  0  0  0  0  0  0  0  0  0  0  0
  -21.7910  -49.4439  -11.4069 C   0  0  0  0  0  0  0  0  0  0  0  0
  -21.3659  -50.7460  -11.7410 C   0  0  0  0  0  0  0  0  0  0  0  0
  -22.2417  -51.8665  -11.8904 C   0  0  0  0  0  0  0  0  0  0  0  0
  -21.6829  -53.1296  -12.1575 C   0  0  0  0  0  0  0  0  0  0  0  0
  -20.3126  -53.2798  -12.3249 C   0  0  0  0  0  0  0  0  0  0  0  0
  -19.4778  -52.1713  -12.2158 C   0  0  0  0  0  0  0  0  0  0  0  0
  -19.9719  -50.9107  -11.9242 C   0  0  0  0  0  0  0  0  0  0  0  0
  -19.0856  -49.9040  -11.8255 N   0  0  0  0  0  0  0  0  0  0  0  0
  -18.8457  -46.7522  -11.1998 H   0  0  0  0  0  0  0  0  0  0  0  0
  -17.6219  -47.8851  -11.5555 H   0  0  0  0  0  0  0  0  0  0  0  0
  -26.4308  -55.4910  -10.8352 N   0  0  0  0  0  0  0  0  0  0  0  0
  -27.5446  -55.5414  -10.0155 C   0  0  0  0  0  0  0  0  0  0  0  0
  -28.5845  -54.9319  -10.2353 O   0  0  0  0  0  0  0  0  0  0  0  0
  -25.6737  -56.0939  -10.6545 H   0  0  0  0  0  0  0  0  0  0  0  0
  -27.4131  -56.3817   -8.7933 C   0  0  0  0  0  0  0  0  0  0  0  0
  -27.1455  -55.8103   -7.5412 C   0  0  0  0  0  0  0  0  0  0  0  0
  -27.0310  -56.6244   -6.4116 C   0  0  0  0  0  0  0  0  0  0  0  0
  -27.1742  -58.0071   -6.5413 C   0  0  0  0  0  0  0  0  0  0  0  0
  -27.0695  -58.8199   -5.4047 N   0  0  0  0  0  0  0  0  0  0  0  0
  -27.1995  -60.1805   -5.4334 C   0  0  0  0  0  0  0  0  0  0  0  0
  -27.1173  -60.8685   -4.4202 O   0  0  0  0  0  0  0  0  0  0  0  0
  -27.4502  -60.8064   -6.7513 C   0  0  0  0  0  0  0  0  0  0  0  0
  -27.5525  -60.0607   -7.8606 C   0  0  0  0  0  0  0  0  0  0  0  0
  -27.7813  -60.5981   -9.1082 O   0  0  0  0  0  0  0  0  0  0  0  0
  -27.4211  -58.5971   -7.7918 C   0  0  0  0  0  0  0  0  0  0  0  0
  -27.5332  -57.7731   -8.9181 C   0  0  0  0  0  0  0  0  0  0  0  0
  -26.8928  -58.3875   -4.5381 H   0  0  0  0  0  0  0  0  0  0  0  0
  -27.8731  -61.5251   -9.2093 H   0  0  0  0  0  0  0  0  0  0  0  0
  -27.6726  -54.3737  -12.7421 C   0  0  0  0  0  0  0  0  0  0  0  0
  -27.6643  -55.0532  -14.0971 C   0  0  0  0  0  0  0  0  0  0  0  0
  -28.7092  -55.9077  -14.4795 C   0  0  0  0  0  0  0  0  0  0  0  0
  -28.7098  -56.5023  -15.7440 C   0  0  0  0  0  0  0  0  0  0  0  0
  -27.6703  -56.2378  -16.6350 C   0  0  0  0  0  0  0  0  0  0  0  0
  -27.6805  -57.0243  -18.3521 Br  0  0  0  0  0  0  0  0  0  0  0  0
  -26.6259  -55.3930  -16.2690 C   0  0  0  0  0  0  0  0  0  0  0  0
  -26.6214  -54.8064  -15.0029 C   0  0  0  0  0  0  0  0  0  0  0  0
  7  8  1  0
  8  9  2  0
  9 10  1  0
 10 11  2  0
 11 12  1  0
 12  6  1  0
  6  2  1  0
  2  3  1  0
  3  4  2  0
  3  1  1  0
  1 38  1  0
 38 39  1  0
 39 40  2  0
 40 41  1  0
 41 42  2  0
 42 43  1  0
 42 44  1  0
 44 45  2  0
  1 20  1  0
 20 21  1  0
 21 22  2  0
 21 24  1  0
 24 25  2  0
 25 26  1  0
 26 27  2  0
 27 28  1  0
 28 29  1  0
 29 30  2  0
 29 31  1  0
 31 32  2  0
 32 33  1  0
 32 34  1  0
 34 35  2  0
 12 13  2  0
 13 14  1  0
 14 15  2  0
 15 16  1  0
 16 17  2  0
 17  8  1  0
 16 11  1  0
 45 39  1  0
 35 24  1  0
 34 27  1  0
  7 18  1  0
  7 19  1  0
  2  5  1  0
 20 23  1  0
 28 36  1  0
 33 37  1  0
M  END
> <minimizedAffinity>
-9.76772

> <CNNscore>
0.6192407012

> <CNNaffinity>
7.1588134766

> <CNN_VS>
4.4330286980

> <CNNaffinity_variance>
0.0416582190

$$$$



 45 49  0  0  0  0  0  0  0  0999 V2000
  -26.0245  -55.2267  -12.4373 C   0  0  0  0  0  0  0  0  0  0  0  0
  -24.1873  -53.5739  -12.0853 N   0  0  0  0  0  0  0  0  0  0  0  0
  -25.5323  -53.7594  -12.3086 C   0  0  0  0  0  0  0  0  0  0  0  0
  -26.3294  -52.8197  -12.2776 O   0  0  0  0  0  0  0  0  0  0  0  0
  -23.5961  -54.3603  -12.0489 H   0  0  0  0  0  0  0  0  0  0  0  0
  -23.6148  -52.2539  -11.9020 C   0  0  0  0  0  0  0  0  0  0  0  0
  -18.9634  -47.6454  -11.3353 N   0  0  0  0  0  0  0  0  0  0  0  0
  -19.7967  -48.7510  -11.5048 C   0  0  0  0  0  0  0  0  0  0  0  0
  -21.1634  -48.6404  -11.3255 C   0  0  0  0  0  0  0  0  0  0  0  0
  -21.9514  -49.7754  -11.4936 C   0  0  0  0  0  0  0  0  0  0  0  0
  -21.3649  -51.0119  -11.8324 C   0  0  0  0  0  0  0  0  0  0  0  0
  -22.0978  -52.2223  -12.0388 C   0  0  0  0  0  0  0  0  0  0  0  0
  -21.3858  -53.4062  -12.3043 C   0  0  0  0  0  0  0  0  0  0  0  0
  -20.0017  -53.3935  -12.4160 C   0  0  0  0  0  0  0  0  0  0  0  0
  -19.3064  -52.1988  -12.2519 C   0  0  0  0  0  0  0  0  0  0  0  0
  -19.9550  -51.0106  -11.9592 C   0  0  0  0  0  0  0  0  0  0  0  0
  -19.1963  -49.9108  -11.8050 N   0  0  0  0  0  0  0  0  0  0  0  0
  -19.3496  -46.7673  -11.1138 H   0  0  0  0  0  0  0  0  0  0  0  0
  -17.9891  -47.7432  -11.4372 H   0  0  0  0  0  0  0  0  0  0  0  0
  -26.7332  -55.5718  -11.1961 N   0  0  0  0  0  0  0  0  0  0  0  0
  -27.3905  -56.7805  -11.0490 C   0  0  0  0  0  0  0  0  0  0  0  0
  -27.3279  -57.6971  -11.8597 O   0  0  0  0  0  0  0  0  0  0  0  0
  -26.7401  -54.9274  -10.4519 H   0  0  0  0  0  0  0  0  0  0  0  0
  -28.2306  -56.9175   -9.8273 C   0  0  0  0  0  0  0  0  0  0  0  0
  -29.5421  -56.4234   -9.7852 C   0  0  0  0  0  0  0  0  0  0  0  0
  -30.3073  -56.5700   -8.6256 C   0  0  0  0  0  0  0  0  0  0  0  0
  -29.7536  -57.2008   -7.5098 C   0  0  0  0  0  0  0  0  0  0  0  0
  -30.5274  -57.3558   -6.3519 N   0  0  0  0  0  0  0  0  0  0  0  0
  -30.0729  -57.9630   -5.2144 C   0  0  0  0  0  0  0  0  0  0  0  0
  -30.7764  -58.0986   -4.2177 O   0  0  0  0  0  0  0  0  0  0  0  0
  -28.6796  -58.4629   -5.2273 C   0  0  0  0  0  0  0  0  0  0  0  0
  -27.9088  -58.3287   -6.3159 C   0  0  0  0  0  0  0  0  0  0  0  0
  -26.6066  -58.7743   -6.3735 O   0  0  0  0  0  0  0  0  0  0  0  0
  -28.4343  -57.6821   -7.5283 C   0  0  0  0  0  0  0  0  0  0  0  0
  -27.6751  -57.5297   -8.6947 C   0  0  0  0  0  0  0  0  0  0  0  0
  -31.4486  -57.0085   -6.3577 H   0  0  0  0  0  0  0  0  0  0  0  0
  -26.2216  -59.1936   -5.6293 H   0  0  0  0  0  0  0  0  0  0  0  0
  -26.7883  -55.5765  -13.7306 C   0  0  0  0  0  0  0  0  0  0  0  0
  -26.0076  -55.2419  -14.9862 C   0  0  0  0  0  0  0  0  0  0  0  0
  -24.6435  -55.5531  -15.0892 C   0  0  0  0  0  0  0  0  0  0  0  0
  -23.9406  -55.2719  -16.2636 C   0  0  0  0  0  0  0  0  0  0  0  0
  -24.6008  -54.6867  -17.3435 C   0  0  0  0  0  0  0  0  0  0  0  0
  -23.6568  -54.3252  -18.9389 Br  0  0  0  0  0  0  0  0  0  0  0  0
  -25.9540  -54.3710  -17.2554 C   0  0  0  0  0  0  0  0  0  0  0  0
  -26.6533  -54.6441  -16.0793 C   0  0  0  0  0  0  0  0  0  0  0  0
  7  8  1  0
  8  9  2  0
  9 10  1  0
 10 11  2  0
 11 12  1  0
 12  6  1  0
  6  2  1  0
  2  3  1  0
  3  4  2  0
  3  1  1  0
  1 38  1  0
 38 39  1  0
 39 40  2  0
 40 41  1  0
 41 42  2  0
 42 43  1  0
 42 44  1  0
 44 45  2  0
  1 20  1  0
 20 21  1  0
 21 22  2  0
 21 24  1  0
 24 25  2  0
 25 26  1  0
 26 27  2  0
 27 28  1  0
 28 29  1  0
 29 30  2  0
 29 31  1  0
 31 32  2  0
 32 33  1  0
 32 34  1  0
 34 35  2  0
 12 13  2  0
 13 14  1  0
 14 15  2  0
 15 16  1  0
 16 17  2  0
 17  8  1  0
 16 11  1  0
 45 39  1  0
 35 24  1  0
 34 27  1  0
  7 18  1  0
  7 19  1  0
  2  5  1  0
 20 23  1  0
 28 36  1  0
 33 37  1  0
M  END
> <minimizedAffinity>
-9.28652

> <CNNscore>
0.4997163415

> <CNNaffinity>
7.0589423180

> <CNN_VS>
3.5274689198

> <CNNaffinity_variance>
0.0218832549

$$$$



 45 49  0  0  0  0  0  0  0  0999 V2000
  -26.9772  -54.8220  -13.1308 C   0  0  0  0  0  0  0  0  0  0  0  0
  -25.2349  -53.0837  -13.5471 N   0  0  0  0  0  0  0  0  0  0  0  0
  -26.2114  -53.5437  -12.6937 C   0  0  0  0  0  0  0  0  0  0  0  0
  -26.3830  -53.0473  -11.5786 O   0  0  0  0  0  0  0  0  0  0  0  0
  -25.0847  -53.5538  -14.3990 H   0  0  0  0  0  0  0  0  0  0  0  0
  -24.4203  -51.9267  -13.2285 C   0  0  0  0  0  0  0  0  0  0  0  0
  -19.1447  -48.5539  -11.2318 N   0  0  0  0  0  0  0  0  0  0  0  0
  -20.1392  -49.4330  -11.6602 C   0  0  0  0  0  0  0  0  0  0  0  0
  -21.4281  -48.9863  -11.8866 C   0  0  0  0  0  0  0  0  0  0  0  0
  -22.3884  -49.9049  -12.3009 C   0  0  0  0  0  0  0  0  0  0  0  0
  -22.0528  -51.2627  -12.4782 C   0  0  0  0  0  0  0  0  0  0  0  0
  -22.9695  -52.2695  -12.9146 C   0  0  0  0  0  0  0  0  0  0  0  0
  -22.5259  -53.6027  -12.9839 C   0  0  0  0  0  0  0  0  0  0  0  0
  -21.2099  -53.9306  -12.6853 C   0  0  0  0  0  0  0  0  0  0  0  0
  -20.3196  -52.9320  -12.3006 C   0  0  0  0  0  0  0  0  0  0  0  0
  -20.7113  -51.6085  -12.1866 C   0  0  0  0  0  0  0  0  0  0  0  0
  -19.7829  -50.7178  -11.7948 N   0  0  0  0  0  0  0  0  0  0  0  0
  -19.3495  -47.5980  -11.1153 H   0  0  0  0  0  0  0  0  0  0  0  0
  -18.2379  -48.8892  -11.0460 H   0  0  0  0  0  0  0  0  0  0  0  0
  -27.4682  -55.4875  -11.9152 N   0  0  0  0  0  0  0  0  0  0  0  0
  -28.7227  -55.2175  -11.3974 C   0  0  0  0  0  0  0  0  0  0  0  0
  -29.5622  -54.5262  -11.9620 O   0  0  0  0  0  0  0  0  0  0  0  0
  -26.8905  -56.1410  -11.4586 H   0  0  0  0  0  0  0  0  0  0  0  0
  -29.0130  -55.8055  -10.0605 C   0  0  0  0  0  0  0  0  0  0  0  0
  -30.3288  -56.0467   -9.6404 C   0  0  0  0  0  0  0  0  0  0  0  0
  -30.5696  -56.6027   -8.3815 C   0  0  0  0  0  0  0  0  0  0  0  0
  -29.4938  -56.9051   -7.5445 C   0  0  0  0  0  0  0  0  0  0  0  0
  -29.7382  -57.4726   -6.2869 N   0  0  0  0  0  0  0  0  0  0  0  0
  -28.7501  -57.8058   -5.4027 C   0  0  0  0  0  0  0  0  0  0  0  0
  -28.9906  -58.3152   -4.3121 O   0  0  0  0  0  0  0  0  0  0  0  0
  -27.3554  -57.5292   -5.8143 C   0  0  0  0  0  0  0  0  0  0  0  0
  -27.0840  -56.9835   -7.0083 C   0  0  0  0  0  0  0  0  0  0  0  0
  -25.8035  -56.7047   -7.4330 O   0  0  0  0  0  0  0  0  0  0  0  0
  -28.1710  -56.6497   -7.9417 C   0  0  0  0  0  0  0  0  0  0  0  0
  -27.9398  -56.0915   -9.2047 C   0  0  0  0  0  0  0  0  0  0  0  0
  -30.6724  -57.6406   -6.0257 H   0  0  0  0  0  0  0  0  0  0  0  0
  -25.0735  -56.8972   -6.8780 H   0  0  0  0  0  0  0  0  0  0  0  0
  -28.0395  -54.6345  -14.2330 C   0  0  0  0  0  0  0  0  0  0  0  0
  -27.8715  -55.6041  -15.3860 C   0  0  0  0  0  0  0  0  0  0  0  0
  -27.9542  -56.9892  -15.1788 C   0  0  0  0  0  0  0  0  0  0  0  0
  -27.8321  -57.8737  -16.2536 C   0  0  0  0  0  0  0  0  0  0  0  0
  -27.6360  -57.3767  -17.5416 C   0  0  0  0  0  0  0  0  0  0  0  0
  -27.4918  -58.5704  -18.9982 Br  0  0  0  0  0  0  0  0  0  0  0  0
  -27.5505  -56.0047  -17.7624 C   0  0  0  0  0  0  0  0  0  0  0  0
  -27.6637  -55.1223  -16.6875 C   0  0  0  0  0  0  0  0  0  0  0  0
  7  8  1  0
  8  9  2  0
  9 10  1  0
 10 11  2  0
 11 12  1  0
 12  6  1  0
  6  2  1  0
  2  3  1  0
  3  4  2  0
  3  1  1  0
  1 38  1  0
 38 39  1  0
 39 40  2  0
 40 41  1  0
 41 42  2  0
 42 43  1  0
 42 44  1  0
 44 45  2  0
  1 20  1  0
 20 21  1  0
 21 22  2  0
 21 24  1  0
 24 25  2  0
 25 26  1  0
 26 27  2  0
 27 28  1  0
 28 29  1  0
 29 30  2  0
 29 31  1  0
 31 32  2  0
 32 33  1  0
 32 34  1  0
 34 35  2  0
 12 13  2  0
 13 14  1  0
 14 15  2  0
 15 16  1  0
 16 17  2  0
 17  8  1  0
 16 11  1  0
 45 39  1  0
 35 24  1  0
 34 27  1  0
  7 18  1  0
  7 19  1  0
  2  5  1  0
 20 23  1  0
 28 36  1  0
 33 37  1  0
M  END
> <minimizedAffinity>
-9.69182

> <CNNscore>
0.4951848090

> <CNNaffinity>
6.9760594368

> <CNN_VS>
3.4544386864

> <CNNaffinity_variance>
0.2269829959

$$$$



 45 49  0  0  0  0  0  0  0  0999 V2000
  -25.9762  -55.0819  -12.5903 C   0  0  0  0  0  0  0  0  0  0  0  0
  -24.1322  -53.4286  -12.2784 N   0  0  0  0  0  0  0  0  0  0  0  0
  -25.4891  -53.6519  -12.2303 C   0  0  0  0  0  0  0  0  0  0  0  0
  -26.2701  -52.8022  -11.7974 O   0  0  0  0  0  0  0  0  0  0  0  0
  -23.5376  -54.1592  -12.5646 H   0  0  0  0  0  0  0  0  0  0  0  0
  -23.5521  -52.1485  -11.9200 C   0  0  0  0  0  0  0  0  0  0  0  0
  -18.9054  -47.5284  -11.4126 N   0  0  0  0  0  0  0  0  0  0  0  0
  -19.7361  -48.6400  -11.5523 C   0  0  0  0  0  0  0  0  0  0  0  0
  -21.1097  -48.5126  -11.4562 C   0  0  0  0  0  0  0  0  0  0  0  0
  -21.8956  -49.6538  -11.5899 C   0  0  0  0  0  0  0  0  0  0  0  0
  -21.3005  -50.9125  -11.8113 C   0  0  0  0  0  0  0  0  0  0  0  0
  -22.0297  -52.1316  -11.9751 C   0  0  0  0  0  0  0  0  0  0  0  0
  -21.3128  -53.3333  -12.1201 C   0  0  0  0  0  0  0  0  0  0  0  0
  -19.9247  -53.3331  -12.1564 C   0  0  0  0  0  0  0  0  0  0  0  0
  -19.2308  -52.1324  -12.0356 C   0  0  0  0  0  0  0  0  0  0  0  0
  -19.8857  -50.9247  -11.8603 C   0  0  0  0  0  0  0  0  0  0  0  0
  -19.1287  -49.8197  -11.7396 N   0  0  0  0  0  0  0  0  0  0  0  0
  -19.2967  -46.6359  -11.2727 H   0  0  0  0  0  0  0  0  0  0  0  0
  -17.9277  -47.6362  -11.4540 H   0  0  0  0  0  0  0  0  0  0  0  0
  -26.4687  -55.7112  -11.3561 N   0  0  0  0  0  0  0  0  0  0  0  0
  -26.0282  -56.9597  -10.9534 C   0  0  0  0  0  0  0  0  0  0  0  0
  -25.1173  -57.5726  -11.4975 O   0  0  0  0  0  0  0  0  0  0  0  0
  -27.1277  -55.2329  -10.8028 H   0  0  0  0  0  0  0  0  0  0  0  0
  -26.7523  -57.5623   -9.8004 C   0  0  0  0  0  0  0  0  0  0  0  0
  -26.4164  -57.2377   -8.4784 C   0  0  0  0  0  0  0  0  0  0  0  0
  -27.1165  -57.8169   -7.4171 C   0  0  0  0  0  0  0  0  0  0  0  0
  -28.1422  -58.7261   -7.6828 C   0  0  0  0  0  0  0  0  0  0  0  0
  -28.8496  -59.2971   -6.6164 N   0  0  0  0  0  0  0  0  0  0  0  0
  -29.8704  -60.1917   -6.7790 C   0  0  0  0  0  0  0  0  0  0  0  0
  -30.4837  -60.6667   -5.8276 O   0  0  0  0  0  0  0  0  0  0  0  0
  -30.2192  -60.5723   -8.1663 C   0  0  0  0  0  0  0  0  0  0  0  0
  -29.5616  -60.0493   -9.2109 C   0  0  0  0  0  0  0  0  0  0  0  0
  -29.8479  -60.3757  -10.5183 O   0  0  0  0  0  0  0  0  0  0  0  0
  -28.4767  -59.0783   -9.0007 C   0  0  0  0  0  0  0  0  0  0  0  0
  -27.7688  -58.4933  -10.0574 C   0  0  0  0  0  0  0  0  0  0  0  0
  -28.5976  -59.0400   -5.7001 H   0  0  0  0  0  0  0  0  0  0  0  0
  -30.5298  -60.9893  -10.7094 H   0  0  0  0  0  0  0  0  0  0  0  0
  -26.9357  -55.1905  -13.7928 C   0  0  0  0  0  0  0  0  0  0  0  0
  -28.1816  -55.9965  -13.4830 C   0  0  0  0  0  0  0  0  0  0  0  0
  -29.3081  -55.3874  -12.9098 C   0  0  0  0  0  0  0  0  0  0  0  0
  -30.4639  -56.1316  -12.6596 C   0  0  0  0  0  0  0  0  0  0  0  0
  -30.5017  -57.4858  -12.9899 C   0  0  0  0  0  0  0  0  0  0  0  0
  -32.0707  -58.4879  -12.6715 Br  0  0  0  0  0  0  0  0  0  0  0  0
  -29.3911  -58.1041  -13.5579 C   0  0  0  0  0  0  0  0  0  0  0  0
  -28.2341  -57.3625  -13.7995 C   0  0  0  0  0  0  0  0  0  0  0  0
  7  8  1  0
  8  9  2  0
  9 10  1  0
 10 11  2  0
 11 12  1  0
 12  6  1  0
  6  2  1  0
  2  3  1  0
  3  4  2  0
  3  1  1  0
  1 38  1  0
 38 39  1  0
 39 40  2  0
 40 41  1  0
 41 42  2  0
 42 43  1  0
 42 44  1  0
 44 45  2  0
  1 20  1  0
 20 21  1  0
 21 22  2  0
 21 24  1  0
 24 25  2  0
 25 26  1  0
 26 27  2  0
 27 28  1  0
 28 29  1  0
 29 30  2  0
 29 31  1  0
 31 32  2  0
 32 33  1  0
 32 34  1  0
 34 35  2  0
 12 13  2  0
 13 14  1  0
 14 15  2  0
 15 16  1  0
 16 17  2  0
 17  8  1  0
 16 11  1  0
 45 39  1  0
 35 24  1  0
 34 27  1  0
  7 18  1  0
  7 19  1  0
  2  5  1  0
 20 23  1  0
 28 36  1  0
 33 37  1  0
M  END
> <minimizedAffinity>
-8.21656

> <CNNscore>
0.4729958177

> <CNNaffinity>
6.7183365822

> <CNN_VS>
3.1777451038

> <CNNaffinity_variance>
0.1522775739

$$$$



 45 49  0  0  0  0  0  0  0  0999 V2000
  -19.2901  -55.0848  -14.2022 C   0  0  0  0  0  0  0  0  0  0  0  0
  -20.2318  -53.7330  -12.3269 N   0  0  0  0  0  0  0  0  0  0  0  0
  -19.0936  -54.1483  -12.9791 C   0  0  0  0  0  0  0  0  0  0  0  0
  -17.9825  -53.6981  -12.6925 O   0  0  0  0  0  0  0  0  0  0  0  0
  -21.1064  -54.0646  -12.6342 H   0  0  0  0  0  0  0  0  0  0  0  0
  -20.1811  -52.8213  -11.2001 C   0  0  0  0  0  0  0  0  0  0  0  0
  -19.2811  -46.3392  -11.8064 N   0  0  0  0  0  0  0  0  0  0  0  0
  -19.6734  -47.6719  -11.6828 C   0  0  0  0  0  0  0  0  0  0  0  0
  -18.7318  -48.6788  -11.5733 C   0  0  0  0  0  0  0  0  0  0  0  0
  -19.1730  -49.9946  -11.4652 C   0  0  0  0  0  0  0  0  0  0  0  0
  -20.5511  -50.2920  -11.4746 C   0  0  0  0  0  0  0  0  0  0  0  0
  -21.0923  -51.6101  -11.3536 C   0  0  0  0  0  0  0  0  0  0  0  0
  -22.4856  -51.7795  -11.4484 C   0  0  0  0  0  0  0  0  0  0  0  0
  -23.3260  -50.6849  -11.6040 C   0  0  0  0  0  0  0  0  0  0  0  0
  -22.7854  -49.4044  -11.6798 C   0  0  0  0  0  0  0  0  0  0  0  0
  -21.4193  -49.1837  -11.6228 C   0  0  0  0  0  0  0  0  0  0  0  0
  -20.9912  -47.9123  -11.7183 N   0  0  0  0  0  0  0  0  0  0  0  0
  -18.3255  -46.1035  -11.7872 H   0  0  0  0  0  0  0  0  0  0  0  0
  -19.9600  -45.6341  -11.9128 H   0  0  0  0  0  0  0  0  0  0  0  0
  -20.4735  -54.6171  -14.9388 N   0  0  0  0  0  0  0  0  0  0  0  0
  -21.7412  -55.0904  -14.6495 C   0  0  0  0  0  0  0  0  0  0  0  0
  -22.0006  -55.8138  -13.6951 O   0  0  0  0  0  0  0  0  0  0  0  0
  -20.3612  -53.9512  -15.6552 H   0  0  0  0  0  0  0  0  0  0  0  0
  -22.8160  -54.6880  -15.5980 C   0  0  0  0  0  0  0  0  0  0  0  0
  -24.0281  -54.1513  -15.1412 C   0  0  0  0  0  0  0  0  0  0  0  0
  -25.0166  -53.7797  -16.0558 C   0  0  0  0  0  0  0  0  0  0  0  0
  -24.7925  -53.9563  -17.4225 C   0  0  0  0  0  0  0  0  0  0  0  0
  -25.7817  -53.5726  -18.3378 N   0  0  0  0  0  0  0  0  0  0  0  0
  -25.6502  -53.7030  -19.6923 C   0  0  0  0  0  0  0  0  0  0  0  0
  -26.5269  -53.3457  -20.4735 O   0  0  0  0  0  0  0  0  0  0  0  0
  -24.3906  -54.2976  -20.1934 C   0  0  0  0  0  0  0  0  0  0  0  0
  -23.4238  -54.6799  -19.3471 C   0  0  0  0  0  0  0  0  0  0  0  0
  -22.2375  -55.2408  -19.7661 O   0  0  0  0  0  0  0  0  0  0  0  0
  -23.5926  -54.5125  -17.8953 C   0  0  0  0  0  0  0  0  0  0  0  0
  -22.6083  -54.8826  -16.9710 C   0  0  0  0  0  0  0  0  0  0  0  0
  -26.6170  -53.1880  -17.9862 H   0  0  0  0  0  0  0  0  0  0  0  0
  -22.0776  -55.3704  -20.6803 H   0  0  0  0  0  0  0  0  0  0  0  0
  -18.0445  -55.3294  -15.0781 C   0  0  0  0  0  0  0  0  0  0  0  0
  -17.4645  -56.7192  -14.9048 C   0  0  0  0  0  0  0  0  0  0  0  0
  -17.0379  -57.1686  -13.6461 C   0  0  0  0  0  0  0  0  0  0  0  0
  -16.5365  -58.4635  -13.4901 C   0  0  0  0  0  0  0  0  0  0  0  0
  -16.4681  -59.3177  -14.5902 C   0  0  0  0  0  0  0  0  0  0  0  0
  -15.8101  -61.0751  -14.3766 Br  0  0  0  0  0  0  0  0  0  0  0  0
  -16.8864  -58.8851  -15.8457 C   0  0  0  0  0  0  0  0  0  0  0  0
  -17.3788  -57.5890  -16.0026 C   0  0  0  0  0  0  0  0  0  0  0  0
  7  8  1  0
  8  9  2  0
  9 10  1  0
 10 11  2  0
 11 12  1  0
 12  6  1  0
  6  2  1  0
  2  3  1  0
  3  4  2  0
  3  1  1  0
  1 38  1  0
 38 39  1  0
 39 40  2  0
 40 41  1  0
 41 42  2  0
 42 43  1  0
 42 44  1  0
 44 45  2  0
  1 20  1  0
 20 21  1  0
 21 22  2  0
 21 24  1  0
 24 25  2  0
 25 26  1  0
 26 27  2  0
 27 28  1  0
 28 29  1  0
 29 30  2  0
 29 31  1  0
 31 32  2  0
 32 33  1  0
 32 34  1  0
 34 35  2  0
 12 13  2  0
 13 14  1  0
 14 15  2  0
 15 16  1  0
 16 17  2  0
 17  8  1  0
 16 11  1  0
 45 39  1  0
 35 24  1  0
 34 27  1  0
  7 18  1  0
  7 19  1  0
  2  5  1  0
 20 23  1  0
 28 36  1  0
 33 37  1  0
M  END
> <minimizedAffinity>
-9.21517

> <CNNscore>
0.3622392118

> <CNNaffinity>
7.2652378082

> <CNN_VS>
2.6317539215

> <CNNaffinity_variance>
0.0324155688

$$$$



 45 49  0  0  0  0  0  0  0  0999 V2000
  -26.4794  -54.1595  -12.1873 C   0  0  0  0  0  0  0  0  0  0  0  0
  -24.9116  -52.3789  -12.9633 N   0  0  0  0  0  0  0  0  0  0  0  0
  -25.6565  -52.8707  -11.9161 C   0  0  0  0  0  0  0  0  0  0  0  0
  -25.5752  -52.3926  -10.7829 O   0  0  0  0  0  0  0  0  0  0  0  0
  -24.9535  -52.8346  -13.8349 H   0  0  0  0  0  0  0  0  0  0  0  0
  -24.0664  -51.2088  -12.8206 C   0  0  0  0  0  0  0  0  0  0  0  0
  -18.5957  -47.8976  -11.3036 N   0  0  0  0  0  0  0  0  0  0  0  0
  -19.6311  -48.7572  -11.6701 C   0  0  0  0  0  0  0  0  0  0  0  0
  -20.9476  -48.3356  -11.6304 C   0  0  0  0  0  0  0  0  0  0  0  0
  -21.9463  -49.2347  -11.9933 C   0  0  0  0  0  0  0  0  0  0  0  0
  -21.6201  -50.5490  -12.3858 C   0  0  0  0  0  0  0  0  0  0  0  0
  -22.5779  -51.5315  -12.7880 C   0  0  0  0  0  0  0  0  0  0  0  0
  -22.1280  -52.8300  -13.0891 C   0  0  0  0  0  0  0  0  0  0  0  0
  -20.7752  -53.1410  -13.0480 C   0  0  0  0  0  0  0  0  0  0  0  0
  -19.8518  -52.1617  -12.6931 C   0  0  0  0  0  0  0  0  0  0  0  0
  -20.2430  -50.8761  -12.3578 C   0  0  0  0  0  0  0  0  0  0  0  0
  -19.2789  -50.0032  -12.0152 N   0  0  0  0  0  0  0  0  0  0  0  0
  -18.7957  -46.9702  -11.0405 H   0  0  0  0  0  0  0  0  0  0  0  0
  -17.6649  -48.2182  -11.3081 H   0  0  0  0  0  0  0  0  0  0  0  0
  -26.3608  -54.4737  -13.6188 N   0  0  0  0  0  0  0  0  0  0  0  0
  -25.2364  -55.0944  -14.1338 C   0  0  0  0  0  0  0  0  0  0  0  0
  -24.3286  -55.5466  -13.4463 O   0  0  0  0  0  0  0  0  0  0  0  0
  -27.0991  -54.2366  -14.2254 H   0  0  0  0  0  0  0  0  0  0  0  0
  -25.1608  -55.1714  -15.6189 C   0  0  0  0  0  0  0  0  0  0  0  0
  -23.9318  -55.3051  -16.2803 C   0  0  0  0  0  0  0  0  0  0  0  0
  -23.8931  -55.3783  -17.6749 C   0  0  0  0  0  0  0  0  0  0  0  0
  -25.0828  -55.3068  -18.4021 C   0  0  0  0  0  0  0  0  0  0  0  0
  -25.0415  -55.3913  -19.8002 N   0  0  0  0  0  0  0  0  0  0  0  0
  -26.1529  -55.3355  -20.5943 C   0  0  0  0  0  0  0  0  0  0  0  0
  -26.0905  -55.4262  -21.8168 O   0  0  0  0  0  0  0  0  0  0  0  0
  -27.4577  -55.1621  -19.9170 C   0  0  0  0  0  0  0  0  0  0  0  0
  -27.5352  -55.0736  -18.5816 C   0  0  0  0  0  0  0  0  0  0  0  0
  -28.7253  -54.9082  -17.9078 O   0  0  0  0  0  0  0  0  0  0  0  0
  -26.3202  -55.1513  -17.7559 C   0  0  0  0  0  0  0  0  0  0  0  0
  -26.3487  -55.0780  -16.3581 C   0  0  0  0  0  0  0  0  0  0  0  0
  -24.1642  -55.4967  -20.2343 H   0  0  0  0  0  0  0  0  0  0  0  0
  -29.5299  -54.8526  -18.3847 H   0  0  0  0  0  0  0  0  0  0  0  0
  -26.2087  -55.3498  -11.2448 C   0  0  0  0  0  0  0  0  0  0  0  0
  -27.4560  -55.8343  -10.5324 C   0  0  0  0  0  0  0  0  0  0  0  0
  -27.8075  -55.3269   -9.2725 C   0  0  0  0  0  0  0  0  0  0  0  0
  -28.9773  -55.7545   -8.6392 C   0  0  0  0  0  0  0  0  0  0  0  0
  -29.8054  -56.6844   -9.2668 C   0  0  0  0  0  0  0  0  0  0  0  0
  -31.3976  -57.2475   -8.4211 Br  0  0  0  0  0  0  0  0  0  0  0  0
  -29.4688  -57.1978  -10.5164 C   0  0  0  0  0  0  0  0  0  0  0  0
  -28.2960  -56.7770  -11.1446 C   0  0  0  0  0  0  0  0  0  0  0  0
  7  8  1  0
  8  9  2  0
  9 10  1  0
 10 11  2  0
 11 12  1  0
 12  6  1  0
  6  2  1  0
  2  3  1  0
  3  4  2  0
  3  1  1  0
  1 38  1  0
 38 39  1  0
 39 40  2  0
 40 41  1  0
 41 42  2  0
 42 43  1  0
 42 44  1  0
 44 45  2  0
  1 20  1  0
 20 21  1  0
 21 22  2  0
 21 24  1  0
 24 25  2  0
 25 26  1  0
 26 27  2  0
 27 28  1  0
 28 29  1  0
 29 30  2  0
 29 31  1  0
 31 32  2  0
 32 33  1  0
 32 34  1  0
 34 35  2  0
 12 13  2  0
 13 14  1  0
 14 15  2  0
 15 16  1  0
 16 17  2  0
 17  8  1  0
 16 11  1  0
 45 39  1  0
 35 24  1  0
 34 27  1  0
  7 18  1  0
  7 19  1  0
  2  5  1  0
 20 23  1  0
 28 36  1  0
 33 37  1  0
M  END
> <minimizedAffinity>
-9.64099

> <CNNscore>
0.3337799907

> <CNNaffinity>
6.7471690178

> <CNN_VS>
2.2520699501

> <CNNaffinity_variance>
0.2846954465

$$$$
