


 21 21  0  0  0  0  0  0  0  0999 V2000
   15.6309    1.6204   16.2367 C   0  0  0  0  0  0  0  0  0  0  0  0
   16.9812    1.7751   15.9074 C   0  0  0  0  0  0  0  0  0  0  0  0
   17.4081    2.9416   15.2650 C   0  0  0  0  0  0  0  0  0  0  0  0
   16.4843    3.9487   14.9502 C   0  0  0  0  0  0  0  0  0  0  0  0
   15.1368    3.7908   15.3088 C   0  0  0  0  0  0  0  0  0  0  0  0
   14.7066    2.6286   15.9536 C   0  0  0  0  0  0  0  0  0  0  0  0
   15.6235   -1.0493   16.0119 N   0  0  0  0  0  0  0  0  0  0  0  0
   15.0981    0.1476   17.0726 S   0  0  0  0  0  0  0  0  0  0  0  0
   13.6552    0.0993   17.0369 O   0  0  0  0  0  0  0  0  0  0  0  0
   15.8532    0.0195   18.2956 O   0  0  0  0  0  0  0  0  0  0  0  0
   15.3740   -1.9660   16.3832 H   0  0  0  0  0  0  0  0  0  0  0  0
   16.6363   -0.9894   15.9064 H   0  0  0  0  0  0  0  0  0  0  0  0
   16.8862    5.2118   14.2693 C   0  0  0  0  0  0  0  0  0  0  0  0
   16.3524    5.5464   13.2189 O   0  0  0  0  0  0  0  0  0  0  0  0
   17.8952    5.9459   14.8585 N   0  0  0  0  0  0  0  0  0  0  0  0
   18.2319    5.6967   15.7495 H   0  0  0  0  0  0  0  0  0  0  0  0
   18.4640    7.0980   14.1531 C   0  0  0  0  0  0  0  0  0  0  0  0
   19.2758    8.0555   15.0298 C   0  0  0  0  0  0  0  0  0  0  0  0
   20.5932    7.9741   14.7332 F   0  0  0  0  0  0  0  0  0  0  0  0
   19.1328    7.8165   16.3479 F   0  0  0  0  0  0  0  0  0  0  0  0
   18.8920    9.3364   14.8014 F   0  0  0  0  0  0  0  0  0  0  0  0
  7  8  1  0
  8  9  2  0
  8 10  2  0
  8  1  1  0
  1  2  2  0
  2  3  1  0
  3  4  2  0
  4 13  1  0
 13 14  2  0
 13 15  1  0
 15 17  1  0
 17 18  1  0
 18 19  1  0
 18 20  1  0
 18 21  1  0
  4  5  1  0
  5  6  2  0
  6  1  1  0
  7 11  1  0
  7 12  1  0
 15 16  1  0
M  END
> <minimizedAffinity>
-7.96280

> <CNNscore>
0.9776364565

> <CNNaffinity>
7.4214940071

> <CNN_VS>
7.2555232048

> <CNNaffinity_variance>
1.2055287361

$$$$



 21 21  0  0  0  0  0  0  0  0999 V2000
   15.6213    1.6432   16.2227 C   0  0  0  0  0  0  0  0  0  0  0  0
   14.6757    2.6202   15.8954 C   0  0  0  0  0  0  0  0  0  0  0  0
   15.0811    3.7803   15.2280 C   0  0  0  0  0  0  0  0  0  0  0  0
   16.4306    3.9629   14.8927 C   0  0  0  0  0  0  0  0  0  0  0  0
   17.3644    2.9631   15.2053 C   0  0  0  0  0  0  0  0  0  0  0  0
   16.9633    1.8012   15.8689 C   0  0  0  0  0  0  0  0  0  0  0  0
   15.6175   -1.0244   15.9747 N   0  0  0  0  0  0  0  0  0  0  0  0
   15.0977    0.1622   17.0496 S   0  0  0  0  0  0  0  0  0  0  0  0
   13.6547    0.1113   17.0244 O   0  0  0  0  0  0  0  0  0  0  0  0
   15.8622    0.0249   18.2658 O   0  0  0  0  0  0  0  0  0  0  0  0
   15.3725   -1.9448   16.3398 H   0  0  0  0  0  0  0  0  0  0  0  0
   16.6293   -0.9616   15.8621 H   0  0  0  0  0  0  0  0  0  0  0  0
   16.9153    5.1781   14.1793 C   0  0  0  0  0  0  0  0  0  0  0  0
   16.5587    5.4052   13.0298 O   0  0  0  0  0  0  0  0  0  0  0  0
   17.7959    5.9933   14.8606 N   0  0  0  0  0  0  0  0  0  0  0  0
   17.9831    5.8310   15.8134 H   0  0  0  0  0  0  0  0  0  0  0  0
   18.4514    7.1017   14.1605 C   0  0  0  0  0  0  0  0  0  0  0  0
   19.2701    8.0365   15.0552 C   0  0  0  0  0  0  0  0  0  0  0  0
   18.9301    9.3273   14.8353 F   0  0  0  0  0  0  0  0  0  0  0  0
   20.5989    7.9206   14.8665 F   0  0  0  0  0  0  0  0  0  0  0  0
   19.0170    7.7723   16.3615 F   0  0  0  0  0  0  0  0  0  0  0  0
  7  8  1  0
  8  9  2  0
  8 10  2  0
  8  1  1  0
  1  2  2  0
  2  3  1  0
  3  4  2  0
  4 13  1  0
 13 14  2  0
 13 15  1  0
 15 17  1  0
 17 18  1  0
 18 19  1  0
 18 20  1  0
 18 21  1  0
  4  5  1  0
  5  6  2  0
  6  1  1  0
  7 11  1  0
  7 12  1  0
 15 16  1  0
M  END
> <minimizedAffinity>
-7.92680

> <CNNscore>
0.9747536778

> <CNNaffinity>
7.3794169426

> <CNN_VS>
7.1931138039

> <CNNaffinity_variance>
1.1786408424

$$$$



 21 21  0  0  0  0  0  0  0  0999 V2000
   15.4540    1.5202   16.1249 C   0  0  0  0  0  0  0  0  0  0  0  0
   16.5437    1.4915   15.2488 C   0  0  0  0  0  0  0  0  0  0  0  0
   16.8768    2.6376   14.5202 C   0  0  0  0  0  0  0  0  0  0  0  0
   16.1184    3.8082   14.6660 C   0  0  0  0  0  0  0  0  0  0  0  0
   15.0429    3.8301   15.5672 C   0  0  0  0  0  0  0  0  0  0  0  0
   14.7085    2.6884   16.2995 C   0  0  0  0  0  0  0  0  0  0  0  0
   15.5878   -1.1543   16.0417 N   0  0  0  0  0  0  0  0  0  0  0  0
   15.0492    0.0694   17.0645 S   0  0  0  0  0  0  0  0  0  0  0  0
   13.6114   -0.0591   17.1089 O   0  0  0  0  0  0  0  0  0  0  0  0
   15.8713    0.0506   18.2503 O   0  0  0  0  0  0  0  0  0  0  0  0
   15.4101   -2.0611   16.4736 H   0  0  0  0  0  0  0  0  0  0  0  0
   16.5888   -1.0455   15.8791 H   0  0  0  0  0  0  0  0  0  0  0  0
   16.4318    5.0573   13.9164 C   0  0  0  0  0  0  0  0  0  0  0  0
   17.0473    5.9671   14.4582 O   0  0  0  0  0  0  0  0  0  0  0  0
   15.9682    5.1410   12.6194 N   0  0  0  0  0  0  0  0  0  0  0  0
   15.5631    4.3543   12.1878 H   0  0  0  0  0  0  0  0  0  0  0  0
   16.0810    6.4054   11.8866 C   0  0  0  0  0  0  0  0  0  0  0  0
   14.7667    6.9348   11.3062 C   0  0  0  0  0  0  0  0  0  0  0  0
   13.7536    6.7672   12.1870 F   0  0  0  0  0  0  0  0  0  0  0  0
   14.4164    6.3325   10.1532 F   0  0  0  0  0  0  0  0  0  0  0  0
   14.8676    8.2649   11.0597 F   0  0  0  0  0  0  0  0  0  0  0  0
  7  8  1  0
  8  9  2  0
  8 10  2  0
  8  1  1  0
  1  2  2  0
  2  3  1  0
  3  4  2  0
  4 13  1  0
 13 14  2  0
 13 15  1  0
 15 17  1  0
 17 18  1  0
 18 19  1  0
 18 20  1  0
 18 21  1  0
  4  5  1  0
  5  6  2  0
  6  1  1  0
  7 11  1  0
  7 12  1  0
 15 16  1  0
M  END
> <minimizedAffinity>
-7.76770

> <CNNscore>
0.9323422909

> <CNNaffinity>
7.5129895210

> <CNN_VS>
7.0046777725

> <CNNaffinity_variance>
1.8654088974

$$$$



 21 21  0  0  0  0  0  0  0  0999 V2000
   25.6147   -5.8227    7.2207 C   0  0  0  0  0  0  0  0  0  0  0  0
   24.5453   -5.3521    7.9894 C   0  0  0  0  0  0  0  0  0  0  0  0
   24.2178   -3.9929    7.9614 C   0  0  0  0  0  0  0  0  0  0  0  0
   24.9616   -3.1069    7.1686 C   0  0  0  0  0  0  0  0  0  0  0  0
   26.0163   -3.5972    6.3833 C   0  0  0  0  0  0  0  0  0  0  0  0
   26.3449   -4.9547    6.4057 C   0  0  0  0  0  0  0  0  0  0  0  0
   27.5391   -7.5380    7.9501 N   0  0  0  0  0  0  0  0  0  0  0  0
   26.0120   -7.5528    7.2422 S   0  0  0  0  0  0  0  0  0  0  0  0
   26.2134   -7.9916    5.8811 O   0  0  0  0  0  0  0  0  0  0  0  0
   25.1082   -8.2165    8.1504 O   0  0  0  0  0  0  0  0  0  0  0  0
   27.8895   -8.4932    8.0226 H   0  0  0  0  0  0  0  0  0  0  0  0
   27.4782   -7.1267    8.8815 H   0  0  0  0  0  0  0  0  0  0  0  0
   24.6533   -1.6506    7.1001 C   0  0  0  0  0  0  0  0  0  0  0  0
   24.1217   -1.1761    6.1039 O   0  0  0  0  0  0  0  0  0  0  0  0
   25.0252   -0.8813    8.1836 N   0  0  0  0  0  0  0  0  0  0  0  0
   25.3609   -1.3115    9.0031 H   0  0  0  0  0  0  0  0  0  0  0  0
   24.9187    0.5787    8.1101 C   0  0  0  0  0  0  0  0  0  0  0  0
   26.0952    1.2782    7.4237 C   0  0  0  0  0  0  0  0  0  0  0  0
   27.2058    0.5075    7.4763 F   0  0  0  0  0  0  0  0  0  0  0  0
   26.3937    2.4723    7.9712 F   0  0  0  0  0  0  0  0  0  0  0  0
   25.8139    1.4869    6.1131 F   0  0  0  0  0  0  0  0  0  0  0  0
  7  8  1  0
  8  9  2  0
  8 10  2  0
  8  1  1  0
  1  2  2  0
  2  3  1  0
  3  4  2  0
  4 13  1  0
 13 14  2  0
 13 15  1  0
 15 17  1  0
 17 18  1  0
 18 19  1  0
 18 20  1  0
 18 21  1  0
  4  5  1  0
  5  6  2  0
  6  1  1  0
  7 11  1  0
  7 12  1  0
 15 16  1  0
M  END
> <minimizedAffinity>
-6.67407

> <CNNscore>
0.8299138546

> <CNNaffinity>
4.7755265236

> <CNN_VS>
3.9632756710

> <CNNaffinity_variance>
0.0438772291

$$$$



 21 21  0  0  0  0  0  0  0  0999 V2000
   18.9108    6.1306   14.3054 C   0  0  0  0  0  0  0  0  0  0  0  0
   19.5602    4.9083   14.1051 C   0  0  0  0  0  0  0  0  0  0  0  0
   18.8682    3.7128   14.3224 C   0  0  0  0  0  0  0  0  0  0  0  0
   17.5305    3.7414   14.7425 C   0  0  0  0  0  0  0  0  0  0  0  0
   16.8841    4.9750   14.9156 C   0  0  0  0  0  0  0  0  0  0  0  0
   17.5706    6.1717   14.6965 C   0  0  0  0  0  0  0  0  0  0  0  0
   21.0701    7.1095   13.0576 N   0  0  0  0  0  0  0  0  0  0  0  0
   19.7870    7.6453   14.0063 S   0  0  0  0  0  0  0  0  0  0  0  0
   20.3743    8.0860   15.2499 O   0  0  0  0  0  0  0  0  0  0  0  0
   18.9572    8.4980   13.1898 O   0  0  0  0  0  0  0  0  0  0  0  0
   21.6644    7.9009   12.8110 H   0  0  0  0  0  0  0  0  0  0  0  0
   20.7075    6.6786   12.2071 H   0  0  0  0  0  0  0  0  0  0  0  0
   16.7464    2.4977   14.9854 C   0  0  0  0  0  0  0  0  0  0  0  0
   16.1235    1.9699   14.0724 O   0  0  0  0  0  0  0  0  0  0  0  0
   16.7347    2.0080   16.2754 N   0  0  0  0  0  0  0  0  0  0  0  0
   17.3232    2.4026   16.9590 H   0  0  0  0  0  0  0  0  0  0  0  0
   15.8431    0.8983   16.6243 C   0  0  0  0  0  0  0  0  0  0  0  0
   14.6050    1.2946   17.4334 C   0  0  0  0  0  0  0  0  0  0  0  0
   14.0400    2.4137   16.9247 F   0  0  0  0  0  0  0  0  0  0  0  0
   14.8726    1.5206   18.7342 F   0  0  0  0  0  0  0  0  0  0  0  0
   13.6725    0.3112   17.3714 F   0  0  0  0  0  0  0  0  0  0  0  0
  7  8  1  0
  8  9  2  0
  8 10  2  0
  8  1  1  0
  1  2  2  0
  2  3  1  0
  3  4  2  0
  4 13  1  0
 13 14  2  0
 13 15  1  0
 15 17  1  0
 17 18  1  0
 18 19  1  0
 18 20  1  0
 18 21  1  0
  4  5  1  0
  5  6  2  0
  6  1  1  0
  7 11  1  0
  7 12  1  0
 15 16  1  0
M  END
> <minimizedAffinity>
-6.54901

> <CNNscore>
0.7547142506

> <CNNaffinity>
5.0311942101

> <CNN_VS>
3.7971138954

> <CNNaffinity_variance>
0.0042079627

$$$$



 21 21  0  0  0  0  0  0  0  0999 V2000
   16.7363    1.7831   14.5469 C   0  0  0  0  0  0  0  0  0  0  0  0
   16.5160    2.9515   15.2832 C   0  0  0  0  0  0  0  0  0  0  0  0
   16.5049    4.1889   14.6318 C   0  0  0  0  0  0  0  0  0  0  0  0
   16.7174    4.2560   13.2472 C   0  0  0  0  0  0  0  0  0  0  0  0
   16.9125    3.0734   12.5172 C   0  0  0  0  0  0  0  0  0  0  0  0
   16.9211    1.8350   13.1634 C   0  0  0  0  0  0  0  0  0  0  0  0
   15.2119    0.2294   16.1088 N   0  0  0  0  0  0  0  0  0  0  0  0
   16.7268    0.2130   15.3752 S   0  0  0  0  0  0  0  0  0  0  0  0
   17.6867    0.2600   16.4532 O   0  0  0  0  0  0  0  0  0  0  0  0
   16.7251   -0.8288   14.3767 O   0  0  0  0  0  0  0  0  0  0  0  0
   15.0769   -0.6372   16.6295 H   0  0  0  0  0  0  0  0  0  0  0  0
   14.4889    0.3127   15.3942 H   0  0  0  0  0  0  0  0  0  0  0  0
   16.7127    5.5474   12.5036 C   0  0  0  0  0  0  0  0  0  0  0  0
   17.3533    6.5045   12.9203 O   0  0  0  0  0  0  0  0  0  0  0  0
   15.9348    5.6106   11.3656 N   0  0  0  0  0  0  0  0  0  0  0  0
   15.5126    4.7955   11.0099 H   0  0  0  0  0  0  0  0  0  0  0  0
   15.7395    6.8957   10.6883 C   0  0  0  0  0  0  0  0  0  0  0  0
   14.3707    7.5435   10.9148 C   0  0  0  0  0  0  0  0  0  0  0  0
   14.4947    8.8822   11.0652 F   0  0  0  0  0  0  0  0  0  0  0  0
   13.7303    7.0629   11.9982 F   0  0  0  0  0  0  0  0  0  0  0  0
   13.5712    7.3334    9.8392 F   0  0  0  0  0  0  0  0  0  0  0  0
  7  8  1  0
  8  9  2  0
  8 10  2  0
  8  1  1  0
  1  2  2  0
  2  3  1  0
  3  4  2  0
  4 13  1  0
 13 14  2  0
 13 15  1  0
 15 17  1  0
 17 18  1  0
 18 19  1  0
 18 20  1  0
 18 21  1  0
  4  5  1  0
  5  6  2  0
  6  1  1  0
  7 11  1  0
  7 12  1  0
 15 16  1  0
M  END
> <minimizedAffinity>
-6.34725

> <CNNscore>
0.7233923078

> <CNNaffinity>
6.1381449699

> <CNN_VS>
4.4402866364

> <CNNaffinity_variance>
0.4706226587

$$$$



 21 21  0  0  0  0  0  0  0  0999 V2000
   15.5110    2.0385   16.4346 C   0  0  0  0  0  0  0  0  0  0  0  0
   14.7499    3.0949   15.9241 C   0  0  0  0  0  0  0  0  0  0  0  0
   15.3094    3.9561   14.9751 C   0  0  0  0  0  0  0  0  0  0  0  0
   16.6288    3.7620   14.5413 C   0  0  0  0  0  0  0  0  0  0  0  0
   17.3726    2.6832   15.0437 C   0  0  0  0  0  0  0  0  0  0  0  0
   16.8165    1.8184   15.9893 C   0  0  0  0  0  0  0  0  0  0  0  0
   15.9054   -0.3249   17.6333 N   0  0  0  0  0  0  0  0  0  0  0  0
   14.7884    0.9344   17.6222 S   0  0  0  0  0  0  0  0  0  0  0  0
   13.5795    0.3832   17.0562 O   0  0  0  0  0  0  0  0  0  0  0  0
   14.8244    1.5709   18.9168 O   0  0  0  0  0  0  0  0  0  0  0  0
   15.6015   -1.0431   18.2907 H   0  0  0  0  0  0  0  0  0  0  0  0
   16.8176    0.0322   17.9174 H   0  0  0  0  0  0  0  0  0  0  0  0
   17.2721    4.6480   13.5305 C   0  0  0  0  0  0  0  0  0  0  0  0
   16.6028    5.4582   12.9014 O   0  0  0  0  0  0  0  0  0  0  0  0
   18.6263    4.4813   13.3246 N   0  0  0  0  0  0  0  0  0  0  0  0
   19.1467    3.8901   13.9152 H   0  0  0  0  0  0  0  0  0  0  0  0
   19.2872    5.1877   12.2234 C   0  0  0  0  0  0  0  0  0  0  0  0
   19.6904    4.3044   11.0394 C   0  0  0  0  0  0  0  0  0  0  0  0
   20.5548    3.3416   11.4342 F   0  0  0  0  0  0  0  0  0  0  0  0
   20.2688    4.9942   10.0371 F   0  0  0  0  0  0  0  0  0  0  0  0
   18.5992    3.6793   10.5306 F   0  0  0  0  0  0  0  0  0  0  0  0
  7  8  1  0
  8  9  2  0
  8 10  2  0
  8  1  1  0
  1  2  2  0
  2  3  1  0
  3  4  2  0
  4 13  1  0
 13 14  2  0
 13 15  1  0
 15 17  1  0
 17 18  1  0
 18 19  1  0
 18 20  1  0
 18 21  1  0
  4  5  1  0
  5  6  2  0
  6  1  1  0
  7 11  1  0
  7 12  1  0
 15 16  1  0
M  END
> <minimizedAffinity>
-6.39080

> <CNNscore>
0.7196974158

> <CNNaffinity>
6.5385642052

> <CNN_VS>
4.7057876587

> <CNNaffinity_variance>
0.9754903913

$$$$



 21 21  0  0  0  0  0  0  0  0999 V2000
   14.7781    7.6688    9.3128 C   0  0  0  0  0  0  0  0  0  0  0  0
   15.9644    8.3892    9.4851 C   0  0  0  0  0  0  0  0  0  0  0  0
   16.8395    8.0449   10.5200 C   0  0  0  0  0  0  0  0  0  0  0  0
   16.5255    6.9844   11.3823 C   0  0  0  0  0  0  0  0  0  0  0  0
   15.3437    6.2544   11.1824 C   0  0  0  0  0  0  0  0  0  0  0  0
   14.4683    6.5928   10.1478 C   0  0  0  0  0  0  0  0  0  0  0  0
   12.2921    7.2454    8.4083 N   0  0  0  0  0  0  0  0  0  0  0  0
   13.6816    8.0953    7.9834 S   0  0  0  0  0  0  0  0  0  0  0  0
   14.1681    7.4745    6.7736 O   0  0  0  0  0  0  0  0  0  0  0  0
   13.3844    9.5045    8.0723 O   0  0  0  0  0  0  0  0  0  0  0  0
   11.5669    7.4084    7.7097 H   0  0  0  0  0  0  0  0  0  0  0  0
   11.9638    7.5643    9.3199 H   0  0  0  0  0  0  0  0  0  0  0  0
   17.4237    6.5744   12.4984 C   0  0  0  0  0  0  0  0  0  0  0  0
   17.1130    5.6460   13.2345 O   0  0  0  0  0  0  0  0  0  0  0  0
   18.5801    7.3071   12.6716 N   0  0  0  0  0  0  0  0  0  0  0  0
   18.8424    7.9813   12.0039 H   0  0  0  0  0  0  0  0  0  0  0  0
   19.4166    7.0778   13.8532 C   0  0  0  0  0  0  0  0  0  0  0  0
   19.0417    7.9119   15.0813 C   0  0  0  0  0  0  0  0  0  0  0  0
   17.9748    7.3745   15.7162 F   0  0  0  0  0  0  0  0  0  0  0  0
   18.7439    9.1911   14.7817 F   0  0  0  0  0  0  0  0  0  0  0  0
   20.0694    7.9267   15.9668 F   0  0  0  0  0  0  0  0  0  0  0  0
  7  8  1  0
  8  9  2  0
  8 10  2  0
  8  1  1  0
  1  2  2  0
  2  3  1  0
  3  4  2  0
  4 13  1  0
 13 14  2  0
 13 15  1  0
 15 17  1  0
 17 18  1  0
 18 19  1  0
 18 20  1  0
 18 21  1  0
  4  5  1  0
  5  6  2  0
  6  1  1  0
  7 11  1  0
  7 12  1  0
 15 16  1  0
M  END
> <minimizedAffinity>
-4.84109

> <CNNscore>
0.6398835778

> <CNNaffinity>
3.6087481976

> <CNN_VS>
2.3091785908

> <CNNaffinity_variance>
0.5450512767

$$$$



 21 21  0  0  0  0  0  0  0  0999 V2000
   14.0286    8.0762    8.3662 C   0  0  0  0  0  0  0  0  0  0  0  0
   14.8332    9.0087    9.0288 C   0  0  0  0  0  0  0  0  0  0  0  0
   14.4537   10.3543    9.0574 C   0  0  0  0  0  0  0  0  0  0  0  0
   13.2735   10.7654    8.4210 C   0  0  0  0  0  0  0  0  0  0  0  0
   12.4632    9.8149    7.7812 C   0  0  0  0  0  0  0  0  0  0  0  0
   12.8367    8.4692    7.7530 C   0  0  0  0  0  0  0  0  0  0  0  0
   16.1395    6.4740    7.9729 N   0  0  0  0  0  0  0  0  0  0  0  0
   14.5031    6.3656    8.3523 S   0  0  0  0  0  0  0  0  0  0  0  0
   13.8774    5.7278    7.2177 O   0  0  0  0  0  0  0  0  0  0  0  0
   14.3922    5.8512    9.6959 O   0  0  0  0  0  0  0  0  0  0  0  0
   16.5419    5.5376    7.9327 H   0  0  0  0  0  0  0  0  0  0  0  0
   16.6191    7.0198    8.6888 H   0  0  0  0  0  0  0  0  0  0  0  0
   12.8217   12.1854    8.4238 C   0  0  0  0  0  0  0  0  0  0  0  0
   13.2425   12.9710    7.5836 O   0  0  0  0  0  0  0  0  0  0  0  0
   11.9506   12.5623    9.4254 N   0  0  0  0  0  0  0  0  0  0  0  0
   11.5604   11.8834   10.0221 H   0  0  0  0  0  0  0  0  0  0  0  0
   11.6082   13.9770    9.5976 C   0  0  0  0  0  0  0  0  0  0  0  0
   12.1760   14.6295   10.8611 C   0  0  0  0  0  0  0  0  0  0  0  0
   12.2157   15.9752   10.7272 F   0  0  0  0  0  0  0  0  0  0  0  0
   13.4191   14.2068   11.1624 F   0  0  0  0  0  0  0  0  0  0  0  0
   11.3807   14.3560   11.9254 F   0  0  0  0  0  0  0  0  0  0  0  0
  7  8  1  0
  8  9  2  0
  8 10  2  0
  8  1  1  0
  1  2  2  0
  2  3  1  0
  3  4  2  0
  4 13  1  0
 13 14  2  0
 13 15  1  0
 15 17  1  0
 17 18  1  0
 18 19  1  0
 18 20  1  0
 18 21  1  0
  4  5  1  0
  5  6  2  0
  6  1  1  0
  7 11  1  0
  7 12  1  0
 15 16  1  0
M  END
> <minimizedAffinity>
-4.72064

> <CNNscore>
0.6155799627

> <CNNaffinity>
4.0656547546

> <CNN_VS>
2.5027356148

> <CNNaffinity_variance>
0.4404885769

$$$$
