


 18 20  0  0  0  0  0  0  0  0999 V2000
    0.7233    6.4611   -8.3624 C   0  0  0  0  0  0  0  0  0  0  0  0
    0.3335    7.1148   -7.1370 N   0  0  0  0  0  0  0  0  0  0  0  0
   -0.1572    8.3673   -7.1874 N   0  0  0  0  0  0  0  0  0  0  0  0
   -0.3866    8.6984   -5.9046 C   0  0  0  0  0  0  0  0  0  0  0  0
   -0.0454    7.6129   -5.0479 C   0  0  0  0  0  0  0  0  0  0  0  0
    0.3994    6.6043   -5.8665 C   0  0  0  0  0  0  0  0  0  0  0  0
    0.8342    5.3616   -5.5684 N   0  0  0  0  0  0  0  0  0  0  0  0
    0.8554    5.0589   -4.6318 H   0  0  0  0  0  0  0  0  0  0  0  0
    1.1302    4.7579   -6.2876 H   0  0  0  0  0  0  0  0  0  0  0  0
   -0.9196   10.0178   -5.5363 C   0  0  0  0  0  0  0  0  0  0  0  0
   -1.9060   10.1289   -4.5244 C   0  0  0  0  0  0  0  0  0  0  0  0
   -2.4342   11.3700   -4.1491 C   0  0  0  0  0  0  0  0  0  0  0  0
   -1.9615   12.4860   -4.7994 C   0  0  0  0  0  0  0  0  0  0  0  0
   -1.0061   12.3954   -5.7829 C   0  0  0  0  0  0  0  0  0  0  0  0
   -0.4675   11.1852   -6.1735 C   0  0  0  0  0  0  0  0  0  0  0  0
   -0.6768   13.6109   -6.2988 O   0  0  0  0  0  0  0  0  0  0  0  0
   -1.5368   14.4749   -5.5264 C   0  0  0  0  0  0  0  0  0  0  0  0
   -2.3539   13.7673   -4.5716 O   0  0  0  0  0  0  0  0  0  0  0  0
  1  2  1  0
  2  3  1  0
  3  4  2  0
  4 10  1  0
 10 11  2  0
 11 12  1  0
 12 13  2  0
 13 14  1  0
 14 15  2  0
 14 16  1  0
 16 17  1  0
 17 18  1  0
  4  5  1  0
  5  6  2  0
  6  7  1  0
  6  2  1  0
 15 10  1  0
 18 13  1  0
  7  8  1  0
  7  9  1  0
M  END
> <minimizedAffinity>
-7.89982

> <CNNscore>
0.9725046754

> <CNNaffinity>
4.1734271049

> <CNN_VS>
4.0586771965

> <CNNaffinity_variance>
1.2645540237

$$$$



 18 20  0  0  0  0  0  0  0  0999 V2000
    0.6053    5.8570   -4.6589 C   0  0  0  0  0  0  0  0  0  0  0  0
    0.2705    6.8929   -5.6053 N   0  0  0  0  0  0  0  0  0  0  0  0
    0.2290    8.1731   -5.1913 N   0  0  0  0  0  0  0  0  0  0  0  0
   -0.1395    8.8739   -6.2780 C   0  0  0  0  0  0  0  0  0  0  0  0
   -0.3093    8.0020   -7.3913 C   0  0  0  0  0  0  0  0  0  0  0  0
   -0.0248    6.7385   -6.9349 C   0  0  0  0  0  0  0  0  0  0  0  0
   -0.0238    5.5533   -7.5811 N   0  0  0  0  0  0  0  0  0  0  0  0
   -0.2461    5.5149   -8.5394 H   0  0  0  0  0  0  0  0  0  0  0  0
    0.1993    4.7273   -7.0941 H   0  0  0  0  0  0  0  0  0  0  0  0
   -0.3134   10.3326   -6.2275 C   0  0  0  0  0  0  0  0  0  0  0  0
    0.5218   11.1754   -7.0031 C   0  0  0  0  0  0  0  0  0  0  0  0
    0.3825   12.5683   -6.9788 C   0  0  0  0  0  0  0  0  0  0  0  0
   -0.5982   13.0960   -6.1715 C   0  0  0  0  0  0  0  0  0  0  0  0
   -1.4157   12.2929   -5.4131 C   0  0  0  0  0  0  0  0  0  0  0  0
   -1.3010   10.9167   -5.4173 C   0  0  0  0  0  0  0  0  0  0  0  0
   -2.3164   13.0093   -4.6869 O   0  0  0  0  0  0  0  0  0  0  0  0
   -1.9691   14.3549   -5.0759 C   0  0  0  0  0  0  0  0  0  0  0  0
   -0.8801   14.4169   -6.0194 O   0  0  0  0  0  0  0  0  0  0  0  0
  1  2  1  0
  2  3  1  0
  3  4  2  0
  4 10  1  0
 10 11  2  0
 11 12  1  0
 12 13  2  0
 13 14  1  0
 14 15  2  0
 14 16  1  0
 16 17  1  0
 17 18  1  0
  4  5  1  0
  5  6  2  0
  6  7  1  0
  6  2  1  0
 15 10  1  0
 18 13  1  0
  7  8  1  0
  7  9  1  0
M  END
> <minimizedAffinity>
-7.37452

> <CNNscore>
0.9480684400

> <CNNaffinity>
4.1379308701

> <CNN_VS>
3.9230415821

> <CNNaffinity_variance>
1.1054021120

$$$$



 18 20  0  0  0  0  0  0  0  0999 V2000
    7.0642   19.9332   -3.5447 C   0  0  0  0  0  0  0  0  0  0  0  0
    7.3380   19.0288   -2.4547 N   0  0  0  0  0  0  0  0  0  0  0  0
    7.8328   19.5187   -1.3026 N   0  0  0  0  0  0  0  0  0  0  0  0
    8.0079   18.4409   -0.5180 C   0  0  0  0  0  0  0  0  0  0  0  0
    7.5913   17.2625   -1.2009 C   0  0  0  0  0  0  0  0  0  0  0  0
    7.1516   17.6709   -2.4360 C   0  0  0  0  0  0  0  0  0  0  0  0
    6.6453   16.9590   -3.4651 N   0  0  0  0  0  0  0  0  0  0  0  0
    6.5383   15.9837   -3.3835 H   0  0  0  0  0  0  0  0  0  0  0  0
    6.3831   17.4150   -4.2973 H   0  0  0  0  0  0  0  0  0  0  0  0
    8.5553   18.5619    0.8408 C   0  0  0  0  0  0  0  0  0  0  0  0
    9.4459   19.6184    1.1569 C   0  0  0  0  0  0  0  0  0  0  0  0
    9.9848   19.7630    2.4411 C   0  0  0  0  0  0  0  0  0  0  0  0
    9.6192   18.8394    3.3925 C   0  0  0  0  0  0  0  0  0  0  0  0
    8.7575   17.8092    3.1021 C   0  0  0  0  0  0  0  0  0  0  0  0
    8.2110   17.6420    1.8449 C   0  0  0  0  0  0  0  0  0  0  0  0
    8.5259   17.0087    4.1780 O   0  0  0  0  0  0  0  0  0  0  0  0
    9.3427   17.6547    5.1770 C   0  0  0  0  0  0  0  0  0  0  0  0
   10.0384   18.8184    4.6853 O   0  0  0  0  0  0  0  0  0  0  0  0
  1  2  1  0
  2  3  1  0
  3  4  2  0
  4 10  1  0
 10 11  2  0
 11 12  1  0
 12 13  2  0
 13 14  1  0
 14 15  2  0
 14 16  1  0
 16 17  1  0
 17 18  1  0
  4  5  1  0
  5  6  2  0
  6  7  1  0
  6  2  1  0
 15 10  1  0
 18 13  1  0
  7  8  1  0
  7  9  1  0
M  END
> <minimizedAffinity>
-4.62689

> <CNNscore>
0.7967302203

> <CNNaffinity>
3.8247802258

> <CNN_VS>
3.0473179817

> <CNNaffinity_variance>
0.3852822781

$$$$



 18 20  0  0  0  0  0  0  0  0999 V2000
    6.7416   14.9540  -13.4598 C   0  0  0  0  0  0  0  0  0  0  0  0
    5.4156   15.3860  -13.0909 N   0  0  0  0  0  0  0  0  0  0  0  0
    5.1054   16.6937  -13.1665 N   0  0  0  0  0  0  0  0  0  0  0  0
    3.8360   16.7715  -12.7302 C   0  0  0  0  0  0  0  0  0  0  0  0
    3.3499   15.4749  -12.3971 C   0  0  0  0  0  0  0  0  0  0  0  0
    4.3794   14.6028  -12.6527 C   0  0  0  0  0  0  0  0  0  0  0  0
    4.4445   13.2611  -12.5188 N   0  0  0  0  0  0  0  0  0  0  0  0
    3.6604   12.7598  -12.1978 H   0  0  0  0  0  0  0  0  0  0  0  0
    5.2762   12.7840  -12.7420 H   0  0  0  0  0  0  0  0  0  0  0  0
    3.1308   18.0585  -12.6476 C   0  0  0  0  0  0  0  0  0  0  0  0
    3.3404   18.9140  -11.5369 C   0  0  0  0  0  0  0  0  0  0  0  0
    2.6854   20.1466  -11.4274 C   0  0  0  0  0  0  0  0  0  0  0  0
    1.8254   20.5026  -12.4401 C   0  0  0  0  0  0  0  0  0  0  0  0
    1.6107   19.6846  -13.5231 C   0  0  0  0  0  0  0  0  0  0  0  0
    2.2426   18.4640  -13.6574 C   0  0  0  0  0  0  0  0  0  0  0  0
    0.7264   20.2191  -14.4087 O   0  0  0  0  0  0  0  0  0  0  0  0
    0.4098   21.4665  -13.7560 C   0  0  0  0  0  0  0  0  0  0  0  0
    1.1053   21.6535  -12.5064 O   0  0  0  0  0  0  0  0  0  0  0  0
  1  2  1  0
  2  3  1  0
  3  4  2  0
  4 10  1  0
 10 11  2  0
 11 12  1  0
 12 13  2  0
 13 14  1  0
 14 15  2  0
 14 16  1  0
 16 17  1  0
 17 18  1  0
  4  5  1  0
  5  6  2  0
  6  7  1  0
  6  2  1  0
 15 10  1  0
 18 13  1  0
  7  8  1  0
  7  9  1  0
M  END
> <minimizedAffinity>
-3.94401

> <CNNscore>
0.7853217721

> <CNNaffinity>
3.7148025036

> <CNN_VS>
2.9173152447

> <CNNaffinity_variance>
0.1274174005

$$$$



 18 20  0  0  0  0  0  0  0  0999 V2000
    0.2064   13.1790  -13.2488 C   0  0  0  0  0  0  0  0  0  0  0  0
    0.2654   14.6032  -13.4703 N   0  0  0  0  0  0  0  0  0  0  0  0
    1.2140   15.3267  -12.8467 N   0  0  0  0  0  0  0  0  0  0  0  0
    0.9825   16.5959  -13.2253 C   0  0  0  0  0  0  0  0  0  0  0  0
   -0.1250   16.6483  -14.1194 C   0  0  0  0  0  0  0  0  0  0  0  0
   -0.5562   15.3535  -14.2710 C   0  0  0  0  0  0  0  0  0  0  0  0
   -1.5635   14.8469  -15.0133 N   0  0  0  0  0  0  0  0  0  0  0  0
   -2.1158   15.4448  -15.5671 H   0  0  0  0  0  0  0  0  0  0  0  0
   -1.7459   13.8795  -15.0007 H   0  0  0  0  0  0  0  0  0  0  0  0
    1.8120   17.7060  -12.7355 C   0  0  0  0  0  0  0  0  0  0  0  0
    1.7606   18.9689  -13.3772 C   0  0  0  0  0  0  0  0  0  0  0  0
    2.5369   20.0473  -12.9358 C   0  0  0  0  0  0  0  0  0  0  0  0
    3.3573   19.8394  -11.8515 C   0  0  0  0  0  0  0  0  0  0  0  0
    3.4191   18.6213  -11.2186 C   0  0  0  0  0  0  0  0  0  0  0  0
    2.6653   17.5405  -11.6320 C   0  0  0  0  0  0  0  0  0  0  0  0
    4.2892   18.6248  -10.1722 O   0  0  0  0  0  0  0  0  0  0  0  0
    4.7673   19.9854  -10.2221 C   0  0  0  0  0  0  0  0  0  0  0  0
    4.1786   20.7625  -11.2849 O   0  0  0  0  0  0  0  0  0  0  0  0
  1  2  1  0
  2  3  1  0
  3  4  2  0
  4 10  1  0
 10 11  2  0
 11 12  1  0
 12 13  2  0
 13 14  1  0
 14 15  2  0
 14 16  1  0
 16 17  1  0
 17 18  1  0
  4  5  1  0
  5  6  2  0
  6  7  1  0
  6  2  1  0
 15 10  1  0
 18 13  1  0
  7  8  1  0
  7  9  1  0
M  END
> <minimizedAffinity>
-4.53002

> <CNNscore>
0.7232978940

> <CNNaffinity>
3.9149329662

> <CNN_VS>
2.8316626549

> <CNNaffinity_variance>
0.1325060725

$$$$



 18 20  0  0  0  0  0  0  0  0999 V2000
   11.3974   16.1151  -12.5668 C   0  0  0  0  0  0  0  0  0  0  0  0
    9.9889   16.0141  -12.2720 N   0  0  0  0  0  0  0  0  0  0  0  0
    9.2950   17.1320  -11.9877 N   0  0  0  0  0  0  0  0  0  0  0  0
    8.0464   16.7051  -11.7296 C   0  0  0  0  0  0  0  0  0  0  0  0
    7.9695   15.2908  -11.8786 C   0  0  0  0  0  0  0  0  0  0  0  0
    9.2267   14.8752  -12.2420 C   0  0  0  0  0  0  0  0  0  0  0  0
    9.6958   13.6393  -12.5157 N   0  0  0  0  0  0  0  0  0  0  0  0
    9.0914   12.8632  -12.4752 H   0  0  0  0  0  0  0  0  0  0  0  0
   10.6423   13.5141  -12.7558 H   0  0  0  0  0  0  0  0  0  0  0  0
    6.9768   17.6422  -11.3575 C   0  0  0  0  0  0  0  0  0  0  0  0
    7.2994   18.8988  -10.7863 C   0  0  0  0  0  0  0  0  0  0  0  0
    6.3054   19.8147  -10.4213 C   0  0  0  0  0  0  0  0  0  0  0  0
    4.9960   19.4524  -10.6362 C   0  0  0  0  0  0  0  0  0  0  0  0
    4.6665   18.2380  -11.1883 C   0  0  0  0  0  0  0  0  0  0  0  0
    5.6254   17.3154  -11.5577 C   0  0  0  0  0  0  0  0  0  0  0  0
    3.3214   18.0748  -11.3158 O   0  0  0  0  0  0  0  0  0  0  0  0
    2.8447   19.3265  -10.7789 C   0  0  0  0  0  0  0  0  0  0  0  0
    3.9027   20.2064  -10.3469 O   0  0  0  0  0  0  0  0  0  0  0  0
  1  2  1  0
  2  3  1  0
  3  4  2  0
  4 10  1  0
 10 11  2  0
 11 12  1  0
 12 13  2  0
 13 14  1  0
 14 15  2  0
 14 16  1  0
 16 17  1  0
 17 18  1  0
  4  5  1  0
  5  6  2  0
  6  7  1  0
  6  2  1  0
 15 10  1  0
 18 13  1  0
  7  8  1  0
  7  9  1  0
M  END
> <minimizedAffinity>
-4.23471

> <CNNscore>
0.6490842104

> <CNNaffinity>
3.2659513950

> <CNN_VS>
2.1198775768

> <CNNaffinity_variance>
0.3651956618

$$$$



 18 20  0  0  0  0  0  0  0  0999 V2000
    1.3340   13.8620  -12.5599 C   0  0  0  0  0  0  0  0  0  0  0  0
    2.0596   15.0852  -12.3182 N   0  0  0  0  0  0  0  0  0  0  0  0
    1.5153   16.2576  -12.6939 N   0  0  0  0  0  0  0  0  0  0  0  0
    2.4351   17.1831  -12.3695 C   0  0  0  0  0  0  0  0  0  0  0  0
    3.5639   16.5628  -11.7617 C   0  0  0  0  0  0  0  0  0  0  0  0
    3.2895   15.2178  -11.7276 C   0  0  0  0  0  0  0  0  0  0  0  0
    4.0178   14.1871  -11.2486 N   0  0  0  0  0  0  0  0  0  0  0  0
    4.8956   14.3546  -10.8355 H   0  0  0  0  0  0  0  0  0  0  0  0
    3.6711   13.2678  -11.3123 H   0  0  0  0  0  0  0  0  0  0  0  0
    2.2150   18.6111  -12.6399 C   0  0  0  0  0  0  0  0  0  0  0  0
    2.6324   19.5854  -11.6988 C   0  0  0  0  0  0  0  0  0  0  0  0
    2.4387   20.9534  -11.9255 C   0  0  0  0  0  0  0  0  0  0  0  0
    1.8253   21.3235  -13.0996 C   0  0  0  0  0  0  0  0  0  0  0  0
    1.4142   20.3915  -14.0219 C   0  0  0  0  0  0  0  0  0  0  0  0
    1.5921   19.0363  -13.8250 C   0  0  0  0  0  0  0  0  0  0  0  0
    0.8313   20.9627  -15.1110 O   0  0  0  0  0  0  0  0  0  0  0  0
    0.9229   22.3607  -14.7652 C   0  0  0  0  0  0  0  0  0  0  0  0
    1.5542   22.5969  -13.4902 O   0  0  0  0  0  0  0  0  0  0  0  0
  1  2  1  0
  2  3  1  0
  3  4  2  0
  4 10  1  0
 10 11  2  0
 11 12  1  0
 12 13  2  0
 13 14  1  0
 14 15  2  0
 14 16  1  0
 16 17  1  0
 17 18  1  0
  4  5  1  0
  5  6  2  0
  6  7  1  0
  6  2  1  0
 15 10  1  0
 18 13  1  0
  7  8  1  0
  7  9  1  0
M  END
> <minimizedAffinity>
-4.71137

> <CNNscore>
0.6469907761

> <CNNaffinity>
3.6117699146

> <CNN_VS>
2.3367817402

> <CNNaffinity_variance>
0.2603936195

$$$$



 18 20  0  0  0  0  0  0  0  0999 V2000
   -2.0263   13.4579   -5.0653 C   0  0  0  0  0  0  0  0  0  0  0  0
   -1.7446   12.0442   -5.1201 N   0  0  0  0  0  0  0  0  0  0  0  0
   -0.9855   11.5635   -6.1225 N   0  0  0  0  0  0  0  0  0  0  0  0
   -0.9405   10.2361   -5.9133 C   0  0  0  0  0  0  0  0  0  0  0  0
   -1.6755    9.8976   -4.7412 C   0  0  0  0  0  0  0  0  0  0  0  0
   -2.1680   11.0789   -4.2438 C   0  0  0  0  0  0  0  0  0  0  0  0
   -2.9195   11.3228   -3.1492 N   0  0  0  0  0  0  0  0  0  0  0  0
   -3.1888   10.5803   -2.5615 H   0  0  0  0  0  0  0  0  0  0  0  0
   -3.1983   12.2433   -2.9387 H   0  0  0  0  0  0  0  0  0  0  0  0
   -0.2069    9.3411   -6.8197 C   0  0  0  0  0  0  0  0  0  0  0  0
   -0.2361    7.9393   -6.6120 C   0  0  0  0  0  0  0  0  0  0  0  0
    0.4507    7.0588   -7.4567 C   0  0  0  0  0  0  0  0  0  0  0  0
    1.1601    7.6028   -8.5019 C   0  0  0  0  0  0  0  0  0  0  0  0
    1.1991    8.9595   -8.7167 C   0  0  0  0  0  0  0  0  0  0  0  0
    0.5317    9.8511   -7.9001 C   0  0  0  0  0  0  0  0  0  0  0  0
    1.9544    9.2911   -9.7991 O   0  0  0  0  0  0  0  0  0  0  0  0
    2.3860    7.9860  -10.2382 C   0  0  0  0  0  0  0  0  0  0  0  0
    1.8841    6.9097   -9.4200 O   0  0  0  0  0  0  0  0  0  0  0  0
  1  2  1  0
  2  3  1  0
  3  4  2  0
  4 10  1  0
 10 11  2  0
 11 12  1  0
 12 13  2  0
 13 14  1  0
 14 15  2  0
 14 16  1  0
 16 17  1  0
 17 18  1  0
  4  5  1  0
  5  6  2  0
  6  7  1  0
  6  2  1  0
 15 10  1  0
 18 13  1  0
  7  8  1  0
  7  9  1  0
M  END
> <minimizedAffinity>
-6.92061

> <CNNscore>
0.5926868320

> <CNNaffinity>
4.1907429695

> <CNN_VS>
2.4837982655

> <CNNaffinity_variance>
0.5243964791

$$$$



 18 20  0  0  0  0  0  0  0  0999 V2000
   -1.3376   12.0926  -15.5165 C   0  0  0  0  0  0  0  0  0  0  0  0
   -1.0929   13.1850  -14.6068 N   0  0  0  0  0  0  0  0  0  0  0  0
    0.1762   13.5189  -14.3068 N   0  0  0  0  0  0  0  0  0  0  0  0
    0.0668   14.5285  -13.4256 C   0  0  0  0  0  0  0  0  0  0  0  0
   -1.3052   14.8335  -13.1949 C   0  0  0  0  0  0  0  0  0  0  0  0
   -2.0270   13.9662  -13.9775 C   0  0  0  0  0  0  0  0  0  0  0  0
   -3.3607   13.8364  -14.1404 N   0  0  0  0  0  0  0  0  0  0  0  0
   -3.9762   14.4328  -13.6560 H   0  0  0  0  0  0  0  0  0  0  0  0
   -3.7180   13.1452  -14.7437 H   0  0  0  0  0  0  0  0  0  0  0  0
    1.2538   15.1674  -12.8396 C   0  0  0  0  0  0  0  0  0  0  0  0
    2.3564   14.3772  -12.4284 C   0  0  0  0  0  0  0  0  0  0  0  0
    3.5023   14.9536  -11.8673 C   0  0  0  0  0  0  0  0  0  0  0  0
    3.5231   16.3217  -11.7268 C   0  0  0  0  0  0  0  0  0  0  0  0
    2.4623   17.1019  -12.1197 C   0  0  0  0  0  0  0  0  0  0  0  0
    1.3199   16.5609  -12.6759 C   0  0  0  0  0  0  0  0  0  0  0  0
    2.6820   18.4260  -11.8950 O   0  0  0  0  0  0  0  0  0  0  0  0
    4.0025   18.3868  -11.3145 C   0  0  0  0  0  0  0  0  0  0  0  0
    4.5429   17.0541  -11.2062 O   0  0  0  0  0  0  0  0  0  0  0  0
  1  2  1  0
  2  3  1  0
  3  4  2  0
  4 10  1  0
 10 11  2  0
 11 12  1  0
 12 13  2  0
 13 14  1  0
 14 15  2  0
 14 16  1  0
 16 17  1  0
 17 18  1  0
  4  5  1  0
  5  6  2  0
  6  7  1  0
  6  2  1  0
 15 10  1  0
 18 13  1  0
  7  8  1  0
  7  9  1  0
M  END
> <minimizedAffinity>
-4.72007

> <CNNscore>
0.5913367271

> <CNNaffinity>
3.4118759632

> <CNN_VS>
2.0175676346

> <CNNaffinity_variance>
0.6489963531

$$$$
