


 35 36  0  0  0  0  0  0  0  0999 V2000
  -36.4331  -70.2727  -52.0895 C   0  0  0  0  0  0  0  0  0  0  0  0
  -37.4405  -69.8637  -53.0157 O   0  0  0  0  0  0  0  0  0  0  0  0
  -35.4044  -69.1032  -52.0183 C   0  0  0  0  0  0  0  0  0  0  0  0
  -33.9749  -69.5728  -51.7253 C   0  0  0  0  0  0  0  0  0  0  0  0
  -33.4852  -70.5952  -52.7851 C   0  0  0  0  0  0  0  0  0  0  0  0
  -32.7800  -71.6129  -52.0704 O   0  0  0  0  0  0  0  0  0  0  0  0
  -34.6248  -71.2755  -53.5661 C   0  0  0  0  0  0  0  0  0  0  0  0
  -35.1266  -70.4405  -54.6084 O   0  0  0  0  0  0  0  0  0  0  0  0
  -35.7921  -71.5751  -52.6276 C   0  0  0  0  0  0  0  0  0  0  0  0
  -37.8580  -69.0472  -52.6996 H   0  0  0  0  0  0  0  0  0  0  0  0
  -33.3814  -72.0429  -51.4424 H   0  0  0  0  0  0  0  0  0  0  0  0
  -35.4936  -69.6290  -54.2242 H   0  0  0  0  0  0  0  0  0  0  0  0
  -37.0694  -70.4907  -50.6708 C   0  0  0  0  0  0  0  0  0  0  0  0
  -38.6200  -70.9984  -50.5619 N   0  0  0  0  0  0  0  0  0  0  0  0
  -39.4739  -69.7180  -50.7297 C   0  0  0  0  0  0  0  0  0  0  0  0
  -38.9288  -71.9439  -51.6981 C   0  0  0  0  0  0  0  0  0  0  0  0
  -38.7151  -71.5813  -49.1569 C   0  0  0  0  0  0  0  0  0  0  0  0
  -40.0607  -71.9426  -48.4492 N   0  0  0  0  0  0  0  0  0  0  0  0
  -40.6231  -70.7587  -47.6839 C   0  0  0  0  0  0  0  0  0  0  0  0
  -39.6425  -72.9892  -47.3934 C   0  0  0  0  0  0  0  0  0  0  0  0
  -41.0454  -72.5358  -49.4549 C   0  0  0  0  0  0  0  0  0  0  0  0
  -43.0421  -70.8973  -49.7548 C   0  0  0  0  0  0  0  0  0  0  0  0
  -42.5448  -72.2926  -49.3923 N   0  0  0  0  0  0  0  0  0  0  0  0
  -43.2036  -72.7396  -48.0752 C   0  0  0  0  0  0  0  0  0  0  0  0
  -43.1816  -73.2372  -50.4791 C   0  0  0  0  0  0  0  0  0  0  0  0
  -32.9743  -68.3979  -51.6594 C   0  0  0  0  0  0  0  0  0  0  0  0
  -32.2874  -68.2307  -50.2971 C   0  0  0  0  0  0  0  0  0  0  0  0
  -31.0708  -69.1526  -50.1509 C   0  0  0  0  0  0  0  0  0  0  0  0
  -29.8716  -68.4058  -49.9701 O   0  0  0  0  0  0  0  0  0  0  0  0
  -28.9881  -68.2962  -51.0044 C   0  0  0  0  0  0  0  0  0  0  0  0
  -27.8688  -67.4656  -51.0578 C   0  0  0  0  0  0  0  0  0  0  0  0
  -27.0463  -67.4676  -52.1900 C   0  0  0  0  0  0  0  0  0  0  0  0
  -27.3383  -68.2980  -53.2705 C   0  0  0  0  0  0  0  0  0  0  0  0
  -28.4555  -69.1276  -53.2233 C   0  0  0  0  0  0  0  0  0  0  0  0
  -29.2725  -69.1268  -52.0923 C   0  0  0  0  0  0  0  0  0  0  0  0
 22 23  1  0
 23 24  1  0
 23 25  1  0
 23 21  1  0
 21 18  1  0
 18 19  1  0
 18 20  1  0
 18 17  1  0
 17 14  1  0
 14 15  1  0
 14 16  1  0
 14 13  1  0
 13  1  1  0
  1  2  1  0
  1  3  1  0
  3  4  1  0
  4 26  1  0
 26 27  1  0
 27 28  1  0
 28 29  1  0
 29 30  1  0
 30 31  2  0
 31 32  1  0
 32 33  2  0
 33 34  1  0
 34 35  2  0
  4  5  1  0
  5  6  1  0
  5  7  1  0
  7  8  1  0
  7  9  1  0
  9  1  1  0
 35 30  1  0
  2 10  1  0
  6 11  1  0
  8 12  1  0
M  CHG 1  14   1
M  CHG 1  18   1
M  CHG 1  23   1
M  END
> <minimizedAffinity>
-5.08561

> <CNNscore>
0.2058538795

> <CNNaffinity>
4.1401214600

> <CNN_VS>
0.8522600532

> <CNNaffinity_variance>
1.4647912979

$$$$



 35 36  0  0  0  0  0  0  0  0999 V2000
  -44.4592  -65.1574  -42.9108 C   0  0  0  0  0  0  0  0  0  0  0  0
  -45.8772  -65.0727  -42.7618 O   0  0  0  0  0  0  0  0  0  0  0  0
  -43.9250  -63.6941  -42.8464 C   0  0  0  0  0  0  0  0  0  0  0  0
  -42.6571  -63.4765  -43.6801 C   0  0  0  0  0  0  0  0  0  0  0  0
  -42.8853  -63.8520  -45.1683 C   0  0  0  0  0  0  0  0  0  0  0  0
  -41.7103  -64.5451  -45.5959 O   0  0  0  0  0  0  0  0  0  0  0  0
  -44.0887  -64.7854  -45.3968 C   0  0  0  0  0  0  0  0  0  0  0  0
  -45.3236  -64.0710  -45.3912 O   0  0  0  0  0  0  0  0  0  0  0  0
  -44.1629  -65.8219  -44.2773 C   0  0  0  0  0  0  0  0  0  0  0  0
  -46.0887  -64.6585  -41.9106 H   0  0  0  0  0  0  0  0  0  0  0  0
  -41.5951  -65.3464  -45.0616 H   0  0  0  0  0  0  0  0  0  0  0  0
  -45.4514  -63.6531  -44.5253 H   0  0  0  0  0  0  0  0  0  0  0  0
  -43.8468  -65.9857  -41.7259 C   0  0  0  0  0  0  0  0  0  0  0  0
  -44.2516  -67.5615  -41.5616 N   0  0  0  0  0  0  0  0  0  0  0  0
  -45.2464  -67.5985  -40.3760 C   0  0  0  0  0  0  0  0  0  0  0  0
  -44.9583  -68.0397  -42.8074 C   0  0  0  0  0  0  0  0  0  0  0  0
  -42.9296  -68.2453  -41.2335 C   0  0  0  0  0  0  0  0  0  0  0  0
  -42.2584  -69.3299  -42.1362 N   0  0  0  0  0  0  0  0  0  0  0  0
  -42.8819  -69.3671  -43.5196 C   0  0  0  0  0  0  0  0  0  0  0  0
  -42.6397  -70.6583  -41.4471 C   0  0  0  0  0  0  0  0  0  0  0  0
  -40.7436  -69.1353  -42.1606 C   0  0  0  0  0  0  0  0  0  0  0  0
  -38.2895  -69.7407  -41.5501 C   0  0  0  0  0  0  0  0  0  0  0  0
  -39.7717  -70.0945  -41.4922 N   0  0  0  0  0  0  0  0  0  0  0  0
  -39.9578  -71.5676  -41.8971 C   0  0  0  0  0  0  0  0  0  0  0  0
  -40.1271  -70.0710  -39.9586 C   0  0  0  0  0  0  0  0  0  0  0  0
  -42.1467  -62.0207  -43.6010 C   0  0  0  0  0  0  0  0  0  0  0  0
  -41.1941  -61.7496  -42.4285 C   0  0  0  0  0  0  0  0  0  0  0  0
  -40.1324  -60.7013  -42.7824 C   0  0  0  0  0  0  0  0  0  0  0  0
  -39.5785  -60.9379  -44.0730 O   0  0  0  0  0  0  0  0  0  0  0  0
  -38.2258  -61.0548  -44.2105 C   0  0  0  0  0  0  0  0  0  0  0  0
  -37.4424  -60.5061  -45.2257 C   0  0  0  0  0  0  0  0  0  0  0  0
  -36.0574  -60.7063  -45.2299 C   0  0  0  0  0  0  0  0  0  0  0  0
  -35.4513  -61.4535  -44.2215 C   0  0  0  0  0  0  0  0  0  0  0  0
  -36.2289  -62.0052  -43.2068 C   0  0  0  0  0  0  0  0  0  0  0  0
  -37.6092  -61.8017  -43.2024 C   0  0  0  0  0  0  0  0  0  0  0  0
 22 23  1  0
 23 24  1  0
 23 25  1  0
 23 21  1  0
 21 18  1  0
 18 19  1  0
 18 20  1  0
 18 17  1  0
 17 14  1  0
 14 15  1  0
 14 16  1  0
 14 13  1  0
 13  1  1  0
  1  2  1  0
  1  3  1  0
  3  4  1  0
  4 26  1  0
 26 27  1  0
 27 28  1  0
 28 29  1  0
 29 30  1  0
 30 31  2  0
 31 32  1  0
 32 33  2  0
 33 34  1  0
 34 35  2  0
  4  5  1  0
  5  6  1  0
  5  7  1  0
  7  8  1  0
  7  9  1  0
  9  1  1  0
 35 30  1  0
  2 10  1  0
  6 11  1  0
  8 12  1  0
M  CHG 1  14   1
M  CHG 1  18   1
M  CHG 1  23   1
M  END
> <minimizedAffinity>
-5.30387

> <CNNscore>
0.1648037285

> <CNNaffinity>
3.4878520966

> <CNN_VS>
0.5748110414

> <CNNaffinity_variance>
1.9603900909

$$$$



 35 36  0  0  0  0  0  0  0  0999 V2000
  -42.9398  -61.2012  -45.3623 C   0  0  0  0  0  0  0  0  0  0  0  0
  -43.3763  -60.8682  -44.0438 O   0  0  0  0  0  0  0  0  0  0  0  0
  -41.6317  -60.3892  -45.6076 C   0  0  0  0  0  0  0  0  0  0  0  0
  -41.4229  -60.0097  -47.0781 C   0  0  0  0  0  0  0  0  0  0  0  0
  -42.6209  -59.1910  -47.6283 C   0  0  0  0  0  0  0  0  0  0  0  0
  -42.8779  -59.6845  -48.9452 O   0  0  0  0  0  0  0  0  0  0  0  0
  -43.9137  -59.3520  -46.8072 C   0  0  0  0  0  0  0  0  0  0  0  0
  -43.9023  -58.5404  -45.6339 O   0  0  0  0  0  0  0  0  0  0  0  0
  -44.0626  -60.8020  -46.3505 C   0  0  0  0  0  0  0  0  0  0  0  0
  -42.6877  -61.1096  -43.4046 H   0  0  0  0  0  0  0  0  0  0  0  0
  -43.1081  -60.6256  -48.8986 H   0  0  0  0  0  0  0  0  0  0  0  0
  -43.1685  -58.8116  -45.0604 H   0  0  0  0  0  0  0  0  0  0  0  0
  -42.6209  -62.7362  -45.4469 C   0  0  0  0  0  0  0  0  0  0  0  0
  -43.3767  -63.7652  -44.4251 N   0  0  0  0  0  0  0  0  0  0  0  0
  -42.6584  -65.1228  -44.6192 C   0  0  0  0  0  0  0  0  0  0  0  0
  -43.1784  -63.3070  -43.0000 C   0  0  0  0  0  0  0  0  0  0  0  0
  -44.8145  -63.7901  -44.9300 C   0  0  0  0  0  0  0  0  0  0  0  0
  -45.7428  -65.0455  -44.8641 N   0  0  0  0  0  0  0  0  0  0  0  0
  -47.1879  -64.6857  -45.1574 C   0  0  0  0  0  0  0  0  0  0  0  0
  -45.6863  -65.4574  -43.3768 C   0  0  0  0  0  0  0  0  0  0  0  0
  -45.2003  -66.1533  -45.7650 C   0  0  0  0  0  0  0  0  0  0  0  0
  -46.9766  -68.0020  -45.3306 C   0  0  0  0  0  0  0  0  0  0  0  0
  -45.5158  -67.6253  -45.5536 N   0  0  0  0  0  0  0  0  0  0  0  0
  -44.6462  -68.3115  -44.4852 C   0  0  0  0  0  0  0  0  0  0  0  0
  -45.1181  -68.3493  -46.8940 C   0  0  0  0  0  0  0  0  0  0  0  0
  -40.1217  -59.2065  -47.2967 C   0  0  0  0  0  0  0  0  0  0  0  0
  -39.0778  -59.9220  -48.1651 C   0  0  0  0  0  0  0  0  0  0  0  0
  -37.8462  -60.3410  -47.3533 C   0  0  0  0  0  0  0  0  0  0  0  0
  -37.8885  -59.8088  -46.0329 O   0  0  0  0  0  0  0  0  0  0  0  0
  -37.3961  -60.5477  -44.9965 C   0  0  0  0  0  0  0  0  0  0  0  0
  -38.1153  -61.0286  -43.9024 C   0  0  0  0  0  0  0  0  0  0  0  0
  -37.4712  -61.7837  -42.9158 C   0  0  0  0  0  0  0  0  0  0  0  0
  -36.1093  -62.0608  -43.0188 C   0  0  0  0  0  0  0  0  0  0  0  0
  -35.3861  -61.5814  -44.1078 C   0  0  0  0  0  0  0  0  0  0  0  0
  -36.0306  -60.8316  -45.0923 C   0  0  0  0  0  0  0  0  0  0  0  0
 22 23  1  0
 23 24  1  0
 23 25  1  0
 23 21  1  0
 21 18  1  0
 18 19  1  0
 18 20  1  0
 18 17  1  0
 17 14  1  0
 14 15  1  0
 14 16  1  0
 14 13  1  0
 13  1  1  0
  1  2  1  0
  1  3  1  0
  3  4  1  0
  4 26  1  0
 26 27  1  0
 27 28  1  0
 28 29  1  0
 29 30  1  0
 30 31  2  0
 31 32  1  0
 32 33  2  0
 33 34  1  0
 34 35  2  0
  4  5  1  0
  5  6  1  0
  5  7  1  0
  7  8  1  0
  7  9  1  0
  9  1  1  0
 35 30  1  0
  2 10  1  0
  6 11  1  0
  8 12  1  0
M  CHG 1  14   1
M  CHG 1  18   1
M  CHG 1  23   1
M  END
> <minimizedAffinity>
-6.82011

> <CNNscore>
0.1542444378

> <CNNaffinity>
3.8334052563

> <CNN_VS>
0.5912814140

> <CNNaffinity_variance>
1.5734930038

$$$$



 35 36  0  0  0  0  0  0  0  0999 V2000
  -41.8106  -60.5264  -50.0128 C   0  0  0  0  0  0  0  0  0  0  0  0
  -42.7376  -59.4791  -50.3024 O   0  0  0  0  0  0  0  0  0  0  0  0
  -40.4403  -59.8342  -49.7412 C   0  0  0  0  0  0  0  0  0  0  0  0
  -39.2378  -60.6975  -50.1394 C   0  0  0  0  0  0  0  0  0  0  0  0
  -39.2984  -61.0984  -51.6373 C   0  0  0  0  0  0  0  0  0  0  0  0
  -38.8948  -62.4681  -51.7066 O   0  0  0  0  0  0  0  0  0  0  0  0
  -40.7060  -60.9932  -52.2529 C   0  0  0  0  0  0  0  0  0  0  0  0
  -41.0337  -59.6495  -52.6027 O   0  0  0  0  0  0  0  0  0  0  0  0
  -41.7516  -61.4637  -51.2436 C   0  0  0  0  0  0  0  0  0  0  0  0
  -42.7923  -58.8768  -49.5440 H   0  0  0  0  0  0  0  0  0  0  0  0
  -39.5082  -63.0125  -51.1887 H   0  0  0  0  0  0  0  0  0  0  0  0
  -41.0332  -59.0983  -51.8045 H   0  0  0  0  0  0  0  0  0  0  0  0
  -42.2652  -61.3001  -48.7245 C   0  0  0  0  0  0  0  0  0  0  0  0
  -42.6103  -60.4556  -47.3674 N   0  0  0  0  0  0  0  0  0  0  0  0
  -43.3202  -61.4674  -46.4352 C   0  0  0  0  0  0  0  0  0  0  0  0
  -41.3295  -60.0008  -46.7094 C   0  0  0  0  0  0  0  0  0  0  0  0
  -43.5461  -59.3543  -47.8512 C   0  0  0  0  0  0  0  0  0  0  0  0
  -45.0526  -59.2479  -47.4497 N   0  0  0  0  0  0  0  0  0  0  0  0
  -45.3171  -58.0186  -46.5996 C   0  0  0  0  0  0  0  0  0  0  0  0
  -45.2679  -60.4709  -46.5317 C   0  0  0  0  0  0  0  0  0  0  0  0
  -45.9385  -59.3266  -48.6915 C   0  0  0  0  0  0  0  0  0  0  0  0
  -47.0915  -57.0045  -48.4912 C   0  0  0  0  0  0  0  0  0  0  0  0
  -47.1850  -58.4766  -48.8781 N   0  0  0  0  0  0  0  0  0  0  0  0
  -48.4608  -59.0819  -48.2660 C   0  0  0  0  0  0  0  0  0  0  0  0
  -47.4717  -58.4640  -50.4263 C   0  0  0  0  0  0  0  0  0  0  0  0
  -37.8922  -59.9918  -49.8613 C   0  0  0  0  0  0  0  0  0  0  0  0
  -37.1770  -60.4758  -48.5924 C   0  0  0  0  0  0  0  0  0  0  0  0
  -38.0554  -60.3224  -47.3449 C   0  0  0  0  0  0  0  0  0  0  0  0
  -37.3187  -59.7779  -46.2544 O   0  0  0  0  0  0  0  0  0  0  0  0
  -37.0950  -60.5444  -45.1477 C   0  0  0  0  0  0  0  0  0  0  0  0
  -38.0441  -60.9446  -44.2072 C   0  0  0  0  0  0  0  0  0  0  0  0
  -37.6642  -61.7415  -43.1214 C   0  0  0  0  0  0  0  0  0  0  0  0
  -36.3375  -62.1411  -42.9719 C   0  0  0  0  0  0  0  0  0  0  0  0
  -35.3855  -61.7427  -43.9066 C   0  0  0  0  0  0  0  0  0  0  0  0
  -35.7667  -60.9510  -44.9904 C   0  0  0  0  0  0  0  0  0  0  0  0
 22 23  1  0
 23 24  1  0
 23 25  1  0
 23 21  1  0
 21 18  1  0
 18 19  1  0
 18 20  1  0
 18 17  1  0
 17 14  1  0
 14 15  1  0
 14 16  1  0
 14 13  1  0
 13  1  1  0
  1  2  1  0
  1  3  1  0
  3  4  1  0
  4 26  1  0
 26 27  1  0
 27 28  1  0
 28 29  1  0
 29 30  1  0
 30 31  2  0
 31 32  1  0
 32 33  2  0
 33 34  1  0
 34 35  2  0
  4  5  1  0
  5  6  1  0
  5  7  1  0
  7  8  1  0
  7  9  1  0
  9  1  1  0
 35 30  1  0
  2 10  1  0
  6 11  1  0
  8 12  1  0
M  CHG 1  14   1
M  CHG 1  18   1
M  CHG 1  23   1
M  END
> <minimizedAffinity>
-7.44618

> <CNNscore>
0.1378985047

> <CNNaffinity>
4.1590313911

> <CNN_VS>
0.5735242367

> <CNNaffinity_variance>
2.6495525837

$$$$



 35 36  0  0  0  0  0  0  0  0999 V2000
  -41.6879  -60.4892  -50.0345 C   0  0  0  0  0  0  0  0  0  0  0  0
  -42.6006  -59.4232  -50.3007 O   0  0  0  0  0  0  0  0  0  0  0  0
  -40.2979  -59.8247  -49.7958 C   0  0  0  0  0  0  0  0  0  0  0  0
  -39.1228  -60.7113  -50.2237 C   0  0  0  0  0  0  0  0  0  0  0  0
  -39.2278  -61.1090  -51.7200 C   0  0  0  0  0  0  0  0  0  0  0  0
  -38.8534  -62.4864  -51.8002 O   0  0  0  0  0  0  0  0  0  0  0  0
  -40.6476  -60.9751  -52.3011 C   0  0  0  0  0  0  0  0  0  0  0  0
  -40.9568  -59.6246  -52.6418 O   0  0  0  0  0  0  0  0  0  0  0  0
  -41.6775  -61.4259  -51.2670 C   0  0  0  0  0  0  0  0  0  0  0  0
  -42.6248  -58.8210  -49.5407 H   0  0  0  0  0  0  0  0  0  0  0  0
  -39.4647  -63.0191  -51.2679 H   0  0  0  0  0  0  0  0  0  0  0  0
  -40.9260  -59.0746  -51.8435 H   0  0  0  0  0  0  0  0  0  0  0  0
  -42.1264  -61.2552  -48.7361 C   0  0  0  0  0  0  0  0  0  0  0  0
  -42.6051  -60.3985  -47.4281 N   0  0  0  0  0  0  0  0  0  0  0  0
  -41.3687  -59.5589  -47.0243 C   0  0  0  0  0  0  0  0  0  0  0  0
  -43.7264  -59.4631  -47.8127 C   0  0  0  0  0  0  0  0  0  0  0  0
  -42.9448  -61.4675  -46.3963 C   0  0  0  0  0  0  0  0  0  0  0  0
  -44.0900  -61.3325  -45.3417 N   0  0  0  0  0  0  0  0  0  0  0  0
  -45.3535  -60.7635  -45.9611 C   0  0  0  0  0  0  0  0  0  0  0  0
  -43.5574  -60.2595  -44.3671 C   0  0  0  0  0  0  0  0  0  0  0  0
  -44.3129  -62.6646  -44.6283 C   0  0  0  0  0  0  0  0  0  0  0  0
  -43.8661  -63.7062  -42.2880 C   0  0  0  0  0  0  0  0  0  0  0  0
  -43.3208  -63.2532  -43.6382 N   0  0  0  0  0  0  0  0  0  0  0  0
  -42.0641  -62.3931  -43.4149 C   0  0  0  0  0  0  0  0  0  0  0  0
  -42.7710  -64.5682  -44.3071 C   0  0  0  0  0  0  0  0  0  0  0  0
  -37.7571  -60.0328  -49.9779 C   0  0  0  0  0  0  0  0  0  0  0  0
  -37.0893  -60.4225  -48.6521 C   0  0  0  0  0  0  0  0  0  0  0  0
  -38.0820  -60.4077  -47.4835 C   0  0  0  0  0  0  0  0  0  0  0  0
  -37.5320  -59.7564  -46.3425 O   0  0  0  0  0  0  0  0  0  0  0  0
  -37.0168  -60.5070  -45.3259 C   0  0  0  0  0  0  0  0  0  0  0  0
  -35.6864  -60.8960  -45.1706 C   0  0  0  0  0  0  0  0  0  0  0  0
  -35.3038  -61.6639  -44.0650 C   0  0  0  0  0  0  0  0  0  0  0  0
  -36.2471  -62.0447  -43.1123 C   0  0  0  0  0  0  0  0  0  0  0  0
  -37.5769  -61.6609  -43.2635 C   0  0  0  0  0  0  0  0  0  0  0  0
  -37.9559  -60.8924  -44.3646 C   0  0  0  0  0  0  0  0  0  0  0  0
 22 23  1  0
 23 24  1  0
 23 25  1  0
 23 21  1  0
 21 18  1  0
 18 19  1  0
 18 20  1  0
 18 17  1  0
 17 14  1  0
 14 15  1  0
 14 16  1  0
 14 13  1  0
 13  1  1  0
  1  2  1  0
  1  3  1  0
  3  4  1  0
  4 26  1  0
 26 27  1  0
 27 28  1  0
 28 29  1  0
 29 30  1  0
 30 31  2  0
 31 32  1  0
 32 33  2  0
 33 34  1  0
 34 35  2  0
  4  5  1  0
  5  6  1  0
  5  7  1  0
  7  8  1  0
  7  9  1  0
  9  1  1  0
 35 30  1  0
  2 10  1  0
  6 11  1  0
  8 12  1  0
M  CHG 1  14   1
M  CHG 1  18   1
M  CHG 1  23   1
M  END
> <minimizedAffinity>
-7.08562

> <CNNscore>
0.1119044796

> <CNNaffinity>
4.2249827385

> <CNN_VS>
0.4727945030

> <CNNaffinity_variance>
2.8394305706

$$$$



 35 36  0  0  0  0  0  0  0  0999 V2000
  -44.5018  -64.9893  -42.8721 C   0  0  0  0  0  0  0  0  0  0  0  0
  -45.9079  -64.7858  -42.7261 O   0  0  0  0  0  0  0  0  0  0  0  0
  -43.8565  -63.5704  -42.9079 C   0  0  0  0  0  0  0  0  0  0  0  0
  -42.5818  -63.5076  -43.7572 C   0  0  0  0  0  0  0  0  0  0  0  0
  -42.8492  -63.9637  -45.2162 C   0  0  0  0  0  0  0  0  0  0  0  0
  -41.7340  -64.7724  -45.5985 O   0  0  0  0  0  0  0  0  0  0  0  0
  -44.1223  -64.8149  -45.3784 C   0  0  0  0  0  0  0  0  0  0  0  0
  -45.2986  -64.0087  -45.4184 O   0  0  0  0  0  0  0  0  0  0  0  0
  -44.2675  -65.7650  -44.1912 C   0  0  0  0  0  0  0  0  0  0  0  0
  -46.0807  -64.3002  -41.9043 H   0  0  0  0  0  0  0  0  0  0  0  0
  -41.6767  -65.5425  -45.0116 H   0  0  0  0  0  0  0  0  0  0  0  0
  -45.3877  -63.5250  -44.5824 H   0  0  0  0  0  0  0  0  0  0  0  0
  -43.9460  -65.7807  -41.6353 C   0  0  0  0  0  0  0  0  0  0  0  0
  -44.2459  -65.2193  -40.1290 N   0  0  0  0  0  0  0  0  0  0  0  0
  -45.7639  -64.9158  -40.1091 C   0  0  0  0  0  0  0  0  0  0  0  0
  -43.9499  -66.2973  -39.1139 C   0  0  0  0  0  0  0  0  0  0  0  0
  -43.3987  -63.9559  -40.0353 C   0  0  0  0  0  0  0  0  0  0  0  0
  -42.6451  -63.5021  -38.7437 N   0  0  0  0  0  0  0  0  0  0  0  0
  -41.6542  -64.5535  -38.2784 C   0  0  0  0  0  0  0  0  0  0  0  0
  -43.7602  -63.4473  -37.6767 C   0  0  0  0  0  0  0  0  0  0  0  0
  -42.0140  -62.1271  -38.9541 C   0  0  0  0  0  0  0  0  0  0  0  0
  -39.4575  -62.5495  -39.1712 C   0  0  0  0  0  0  0  0  0  0  0  0
  -40.6004  -61.7851  -38.5116 N   0  0  0  0  0  0  0  0  0  0  0  0
  -40.3975  -61.7863  -36.9860 C   0  0  0  0  0  0  0  0  0  0  0  0
  -40.3683  -60.2845  -38.9278 C   0  0  0  0  0  0  0  0  0  0  0  0
  -41.9607  -62.0935  -43.7778 C   0  0  0  0  0  0  0  0  0  0  0  0
  -41.2293  -61.7074  -42.4849 C   0  0  0  0  0  0  0  0  0  0  0  0
  -40.0810  -60.7255  -42.7466 C   0  0  0  0  0  0  0  0  0  0  0  0
  -39.5312  -60.9039  -44.0483 O   0  0  0  0  0  0  0  0  0  0  0  0
  -38.1807  -61.0372  -44.1928 C   0  0  0  0  0  0  0  0  0  0  0  0
  -37.3952  -60.4937  -45.2092 C   0  0  0  0  0  0  0  0  0  0  0  0
  -36.0129  -60.7113  -45.2209 C   0  0  0  0  0  0  0  0  0  0  0  0
  -35.4116  -61.4708  -44.2189 C   0  0  0  0  0  0  0  0  0  0  0  0
  -36.1912  -62.0174  -43.2031 C   0  0  0  0  0  0  0  0  0  0  0  0
  -37.5688  -61.7966  -43.1911 C   0  0  0  0  0  0  0  0  0  0  0  0
 22 23  1  0
 23 24  1  0
 23 25  1  0
 23 21  1  0
 21 18  1  0
 18 19  1  0
 18 20  1  0
 18 17  1  0
 17 14  1  0
 14 15  1  0
 14 16  1  0
 14 13  1  0
 13  1  1  0
  1  2  1  0
  1  3  1  0
  3  4  1  0
  4 26  1  0
 26 27  1  0
 27 28  1  0
 28 29  1  0
 29 30  1  0
 30 31  2  0
 31 32  1  0
 32 33  2  0
 33 34  1  0
 34 35  2  0
  4  5  1  0
  5  6  1  0
  5  7  1  0
  7  8  1  0
  7  9  1  0
  9  1  1  0
 35 30  1  0
  2 10  1  0
  6 11  1  0
  8 12  1  0
M  CHG 1  14   1
M  CHG 1  18   1
M  CHG 1  23   1
M  END
> <minimizedAffinity>
-5.33044

> <CNNscore>
0.1117601469

> <CNNaffinity>
3.5235092640

> <CNN_VS>
0.3937879205

> <CNNaffinity_variance>
1.6725343466

$$$$



 35 36  0  0  0  0  0  0  0  0999 V2000
  -43.0125  -60.8188  -44.5827 C   0  0  0  0  0  0  0  0  0  0  0  0
  -42.4102  -61.2537  -45.8026 O   0  0  0  0  0  0  0  0  0  0  0  0
  -41.8411  -60.4071  -43.6397 C   0  0  0  0  0  0  0  0  0  0  0  0
  -42.1544  -60.6274  -42.1554 C   0  0  0  0  0  0  0  0  0  0  0  0
  -42.5219  -62.1072  -41.8667 C   0  0  0  0  0  0  0  0  0  0  0  0
  -43.6207  -62.0806  -40.9524 O   0  0  0  0  0  0  0  0  0  0  0  0
  -42.9694  -62.8917  -43.1140 C   0  0  0  0  0  0  0  0  0  0  0  0
  -41.8577  -63.3239  -43.8967 O   0  0  0  0  0  0  0  0  0  0  0  0
  -43.8302  -62.0008  -44.0076 C   0  0  0  0  0  0  0  0  0  0  0  0
  -41.8908  -60.5283  -46.1834 H   0  0  0  0  0  0  0  0  0  0  0  0
  -44.3711  -61.6225  -41.3621 H   0  0  0  0  0  0  0  0  0  0  0  0
  -41.3642  -62.5507  -44.2121 H   0  0  0  0  0  0  0  0  0  0  0  0
  -43.9238  -59.5693  -44.8535 C   0  0  0  0  0  0  0  0  0  0  0  0
  -44.9113  -59.5700  -46.1570 N   0  0  0  0  0  0  0  0  0  0  0  0
  -45.5972  -58.1822  -46.1411 C   0  0  0  0  0  0  0  0  0  0  0  0
  -44.0912  -59.6951  -47.4187 C   0  0  0  0  0  0  0  0  0  0  0  0
  -45.8880  -60.7052  -45.8740 C   0  0  0  0  0  0  0  0  0  0  0  0
  -47.2832  -60.5102  -45.1976 N   0  0  0  0  0  0  0  0  0  0  0  0
  -48.2614  -59.8166  -46.1282 C   0  0  0  0  0  0  0  0  0  0  0  0
  -46.9915  -59.5191  -44.0497 C   0  0  0  0  0  0  0  0  0  0  0  0
  -47.8015  -61.8422  -44.6589 C   0  0  0  0  0  0  0  0  0  0  0  0
  -50.0492  -63.0720  -44.2153 C   0  0  0  0  0  0  0  0  0  0  0  0
  -49.0289  -62.5436  -45.2180 N   0  0  0  0  0  0  0  0  0  0  0  0
  -48.7150  -63.6423  -46.2490 C   0  0  0  0  0  0  0  0  0  0  0  0
  -49.8100  -61.4546  -46.0445 C   0  0  0  0  0  0  0  0  0  0  0  0
  -40.9805  -60.2128  -41.2411 C   0  0  0  0  0  0  0  0  0  0  0  0
  -40.1788  -61.3911  -40.6712 C   0  0  0  0  0  0  0  0  0  0  0  0
  -38.7828  -61.4915  -41.2975 C   0  0  0  0  0  0  0  0  0  0  0  0
  -38.8549  -61.8575  -42.6720 O   0  0  0  0  0  0  0  0  0  0  0  0
  -37.8399  -61.5052  -43.5134 C   0  0  0  0  0  0  0  0  0  0  0  0
  -37.9441  -60.7129  -44.6567 C   0  0  0  0  0  0  0  0  0  0  0  0
  -36.8064  -60.4292  -45.4205 C   0  0  0  0  0  0  0  0  0  0  0  0
  -35.5629  -60.9345  -45.0454 C   0  0  0  0  0  0  0  0  0  0  0  0
  -35.4535  -61.7276  -43.9062 C   0  0  0  0  0  0  0  0  0  0  0  0
  -36.5883  -62.0066  -43.1439 C   0  0  0  0  0  0  0  0  0  0  0  0
 22 23  1  0
 23 24  1  0
 23 25  1  0
 23 21  1  0
 21 18  1  0
 18 19  1  0
 18 20  1  0
 18 17  1  0
 17 14  1  0
 14 15  1  0
 14 16  1  0
 14 13  1  0
 13  1  1  0
  1  2  1  0
  1  3  1  0
  3  4  1  0
  4 26  1  0
 26 27  1  0
 27 28  1  0
 28 29  1  0
 29 30  1  0
 30 31  2  0
 31 32  1  0
 32 33  2  0
 33 34  1  0
 34 35  2  0
  4  5  1  0
  5  6  1  0
  5  7  1  0
  7  8  1  0
  7  9  1  0
  9  1  1  0
 35 30  1  0
  2 10  1  0
  6 11  1  0
  8 12  1  0
M  CHG 1  14   1
M  CHG 1  18   1
M  CHG 1  23   1
M  END
> <minimizedAffinity>
-5.34888

> <CNNscore>
0.1105701551

> <CNNaffinity>
3.4209973812

> <CNN_VS>
0.3782602251

> <CNNaffinity_variance>
1.6596757174

$$$$



 35 36  0  0  0  0  0  0  0  0999 V2000
  -44.4203  -59.0386  -46.7858 C   0  0  0  0  0  0  0  0  0  0  0  0
  -45.5926  -59.5928  -47.3847 O   0  0  0  0  0  0  0  0  0  0  0  0
  -43.2467  -59.3329  -47.7691 C   0  0  0  0  0  0  0  0  0  0  0  0
  -41.8980  -59.5137  -47.0632 C   0  0  0  0  0  0  0  0  0  0  0  0
  -41.9564  -60.6532  -46.0115 C   0  0  0  0  0  0  0  0  0  0  0  0
  -41.2348  -60.1870  -44.8688 O   0  0  0  0  0  0  0  0  0  0  0  0
  -43.3841  -61.0038  -45.5528 C   0  0  0  0  0  0  0  0  0  0  0  0
  -44.0532  -61.8421  -46.4934 O   0  0  0  0  0  0  0  0  0  0  0  0
  -44.2140  -59.7288  -45.4155 C   0  0  0  0  0  0  0  0  0  0  0  0
  -45.7435  -59.1751  -48.2470 H   0  0  0  0  0  0  0  0  0  0  0  0
  -41.6608  -59.3878  -44.5213 H   0  0  0  0  0  0  0  0  0  0  0  0
  -44.1356  -61.3764  -47.3403 H   0  0  0  0  0  0  0  0  0  0  0  0
  -44.5861  -57.4855  -46.6261 C   0  0  0  0  0  0  0  0  0  0  0  0
  -46.0855  -56.8578  -46.4482 N   0  0  0  0  0  0  0  0  0  0  0  0
  -46.0422  -56.0907  -45.1042 C   0  0  0  0  0  0  0  0  0  0  0  0
  -46.3637  -55.8766  -47.5618 C   0  0  0  0  0  0  0  0  0  0  0  0
  -46.9895  -58.0834  -46.3898 C   0  0  0  0  0  0  0  0  0  0  0  0
  -48.5083  -58.0681  -46.7573 N   0  0  0  0  0  0  0  0  0  0  0  0
  -49.2428  -56.9475  -46.0443 C   0  0  0  0  0  0  0  0  0  0  0  0
  -49.0369  -59.3899  -46.1586 C   0  0  0  0  0  0  0  0  0  0  0  0
  -48.6860  -58.0388  -48.2741 C   0  0  0  0  0  0  0  0  0  0  0  0
  -51.1076  -57.2914  -48.8559 C   0  0  0  0  0  0  0  0  0  0  0  0
  -50.0074  -58.3420  -48.9619 N   0  0  0  0  0  0  0  0  0  0  0  0
  -50.5927  -59.7252  -48.6258 C   0  0  0  0  0  0  0  0  0  0  0  0
  -49.6843  -58.4264  -50.5006 C   0  0  0  0  0  0  0  0  0  0  0  0
  -40.7512  -59.8039  -48.0565 C   0  0  0  0  0  0  0  0  0  0  0  0
  -39.4531  -59.0400  -47.7613 C   0  0  0  0  0  0  0  0  0  0  0  0
  -38.3819  -59.9465  -47.1432 C   0  0  0  0  0  0  0  0  0  0  0  0
  -38.4914  -59.9871  -45.7237 O   0  0  0  0  0  0  0  0  0  0  0  0
  -37.5255  -60.6181  -44.9949 C   0  0  0  0  0  0  0  0  0  0  0  0
  -36.1705  -60.7101  -45.3127 C   0  0  0  0  0  0  0  0  0  0  0  0
  -35.2933  -61.3877  -44.4585 C   0  0  0  0  0  0  0  0  0  0  0  0
  -35.7657  -61.9741  -43.2857 C   0  0  0  0  0  0  0  0  0  0  0  0
  -37.1177  -61.8871  -42.9646 C   0  0  0  0  0  0  0  0  0  0  0  0
  -37.9902  -61.2082  -43.8158 C   0  0  0  0  0  0  0  0  0  0  0  0
 22 23  1  0
 23 24  1  0
 23 25  1  0
 23 21  1  0
 21 18  1  0
 18 19  1  0
 18 20  1  0
 18 17  1  0
 17 14  1  0
 14 15  1  0
 14 16  1  0
 14 13  1  0
 13  1  1  0
  1  2  1  0
  1  3  1  0
  3  4  1  0
  4 26  1  0
 26 27  1  0
 27 28  1  0
 28 29  1  0
 29 30  1  0
 30 31  2  0
 31 32  1  0
 32 33  2  0
 33 34  1  0
 34 35  2  0
  4  5  1  0
  5  6  1  0
  5  7  1  0
  7  8  1  0
  7  9  1  0
  9  1  1  0
 35 30  1  0
  2 10  1  0
  6 11  1  0
  8 12  1  0
M  CHG 1  14   1
M  CHG 1  18   1
M  CHG 1  23   1
M  END
> <minimizedAffinity>
-6.64433

> <CNNscore>
0.1059853882

> <CNNaffinity>
3.6830303669

> <CNN_VS>
0.3903473914

> <CNNaffinity_variance>
1.8345264196

$$$$



 35 36  0  0  0  0  0  0  0  0999 V2000
  -44.6571  -58.9999  -45.9582 C   0  0  0  0  0  0  0  0  0  0  0  0
  -44.3843  -57.6072  -45.7971 O   0  0  0  0  0  0  0  0  0  0  0  0
  -43.9160  -59.7275  -44.7953 C   0  0  0  0  0  0  0  0  0  0  0  0
  -43.4546  -61.1420  -45.1644 C   0  0  0  0  0  0  0  0  0  0  0  0
  -42.5265  -61.1296  -46.4080 C   0  0  0  0  0  0  0  0  0  0  0  0
  -42.9147  -62.2446  -47.2142 O   0  0  0  0  0  0  0  0  0  0  0  0
  -42.6582  -59.8602  -47.2697 C   0  0  0  0  0  0  0  0  0  0  0  0
  -41.9280  -58.7657  -46.7181 O   0  0  0  0  0  0  0  0  0  0  0  0
  -44.1226  -59.4324  -47.3452 C   0  0  0  0  0  0  0  0  0  0  0  0
  -44.7108  -57.3116  -44.9329 H   0  0  0  0  0  0  0  0  0  0  0  0
  -43.8402  -62.1408  -47.4854 H   0  0  0  0  0  0  0  0  0  0  0  0
  -42.2828  -58.5493  -45.8416 H   0  0  0  0  0  0  0  0  0  0  0  0
  -46.2004  -59.2593  -45.8323 C   0  0  0  0  0  0  0  0  0  0  0  0
  -47.1380  -58.1458  -45.0873 N   0  0  0  0  0  0  0  0  0  0  0  0
  -48.5421  -58.7930  -45.0070 C   0  0  0  0  0  0  0  0  0  0  0  0
  -46.6299  -57.9058  -43.6858 C   0  0  0  0  0  0  0  0  0  0  0  0
  -47.1020  -56.9490  -46.0303 C   0  0  0  0  0  0  0  0  0  0  0  0
  -48.0630  -56.7666  -47.2489 N   0  0  0  0  0  0  0  0  0  0  0  0
  -47.3309  -56.2126  -48.4577 C   0  0  0  0  0  0  0  0  0  0  0  0
  -49.0341  -55.6614  -46.7794 C   0  0  0  0  0  0  0  0  0  0  0  0
  -48.8065  -58.0694  -47.5368 C   0  0  0  0  0  0  0  0  0  0  0  0
  -50.3497  -59.6067  -48.9571 C   0  0  0  0  0  0  0  0  0  0  0  0
  -49.4409  -58.3844  -48.8820 N   0  0  0  0  0  0  0  0  0  0  0  0
  -48.4478  -58.4178  -50.0573 C   0  0  0  0  0  0  0  0  0  0  0  0
  -50.3832  -57.1667  -49.2112 C   0  0  0  0  0  0  0  0  0  0  0  0
  -42.7236  -61.8427  -43.9979 C   0  0  0  0  0  0  0  0  0  0  0  0
  -41.6243  -60.9952  -43.3429 C   0  0  0  0  0  0  0  0  0  0  0  0
  -40.2415  -61.6433  -43.4808 C   0  0  0  0  0  0  0  0  0  0  0  0
  -39.3257  -60.7776  -44.1445 O   0  0  0  0  0  0  0  0  0  0  0  0
  -37.9927  -61.0693  -44.1239 C   0  0  0  0  0  0  0  0  0  0  0  0
  -37.3249  -61.8418  -43.1738 C   0  0  0  0  0  0  0  0  0  0  0  0
  -35.9477  -62.0614  -43.2895 C   0  0  0  0  0  0  0  0  0  0  0  0
  -35.2343  -61.5115  -44.3530 C   0  0  0  0  0  0  0  0  0  0  0  0
  -35.8956  -60.7377  -45.3031 C   0  0  0  0  0  0  0  0  0  0  0  0
  -37.2693  -60.5226  -45.1880 C   0  0  0  0  0  0  0  0  0  0  0  0
 22 23  1  0
 23 24  1  0
 23 25  1  0
 23 21  1  0
 21 18  1  0
 18 19  1  0
 18 20  1  0
 18 17  1  0
 17 14  1  0
 14 15  1  0
 14 16  1  0
 14 13  1  0
 13  1  1  0
  1  2  1  0
  1  3  1  0
  3  4  1  0
  4 26  1  0
 26 27  1  0
 27 28  1  0
 28 29  1  0
 29 30  1  0
 30 31  2  0
 31 32  1  0
 32 33  2  0
 33 34  1  0
 34 35  2  0
  4  5  1  0
  5  6  1  0
  5  7  1  0
  7  8  1  0
  7  9  1  0
  9  1  1  0
 35 30  1  0
  2 10  1  0
  6 11  1  0
  8 12  1  0
M  CHG 1  14   1
M  CHG 1  18   1
M  CHG 1  23   1
M  END
> <minimizedAffinity>
-6.33057

> <CNNscore>
0.1038009301

> <CNNaffinity>
3.2078247070

> <CNN_VS>
0.3329751790

> <CNNaffinity_variance>
2.7435550690

$$$$
