


 38 41  0  0  0  0  0  0  0  0999 V2000
   19.1323   18.7715   33.4904 C   0  0  0  0  0  0  0  0  0  0  0  0
   18.5589   17.6936   32.8209 C   0  0  0  0  0  0  0  0  0  0  0  0
   19.3617   16.6300   32.4094 C   0  0  0  0  0  0  0  0  0  0  0  0
   20.7459   16.6300   32.6507 C   0  0  0  0  0  0  0  0  0  0  0  0
   21.5179   15.5361   32.2445 C   0  0  0  0  0  0  0  0  0  0  0  0
   22.8913   15.5141   32.4877 C   0  0  0  0  0  0  0  0  0  0  0  0
   23.5134   16.6000   33.1048 C   0  0  0  0  0  0  0  0  0  0  0  0
   22.7793   17.7257   33.5079 C   0  0  0  0  0  0  0  0  0  0  0  0
   21.3621   17.7318   33.3036 C   0  0  0  0  0  0  0  0  0  0  0  0
   20.5152   18.7873   33.7218 C   0  0  0  0  0  0  0  0  0  0  0  0
   17.0083   19.7978   33.9719 N   0  0  0  0  0  0  0  0  0  0  0  0
   18.2952   19.9184   33.9541 C   0  0  0  0  0  0  0  0  0  0  0  0
   18.8750   21.0917   34.3446 N   0  0  0  0  0  0  0  0  0  0  0  0
   16.4478   20.5479   34.2759 H   0  0  0  0  0  0  0  0  0  0  0  0
   18.3134   21.8410   34.6485 H   0  0  0  0  0  0  0  0  0  0  0  0
   19.8545   21.1881   34.3223 H   0  0  0  0  0  0  0  0  0  0  0  0
   23.7207   14.3527   32.0723 C   0  0  0  0  0  0  0  0  0  0  0  0
   23.3876   13.2352   32.4436 O   0  0  0  0  0  0  0  0  0  0  0  0
   24.7945   14.6850   31.2664 N   0  0  0  0  0  0  0  0  0  0  0  0
   24.8840   15.6362   31.0285 H   0  0  0  0  0  0  0  0  0  0  0  0
   25.7757   13.8155   30.7470 C   0  0  0  0  0  0  0  0  0  0  0  0
   26.0330   12.6398   31.4624 C   0  0  0  0  0  0  0  0  0  0  0  0
   26.9869   11.7215   31.0113 C   0  0  0  0  0  0  0  0  0  0  0  0
   27.7069   11.9659   29.8364 C   0  0  0  0  0  0  0  0  0  0  0  0
   27.4397   13.1365   29.1165 C   0  0  0  0  0  0  0  0  0  0  0  0
   26.4838   14.0535   29.5694 C   0  0  0  0  0  0  0  0  0  0  0  0
   28.7170   10.9690   29.3315 C   0  0  0  0  0  0  0  0  0  0  0  0
   28.0646    9.7734   28.8113 N   0  0  0  0  0  0  0  0  0  0  0  0
   27.5288    9.3272   29.5557 H   0  0  0  0  0  0  0  0  0  0  0  0
   28.7709    9.1241   28.4648 H   0  0  0  0  0  0  0  0  0  0  0  0
   23.3988   18.8039   34.1707 N   0  0  0  0  0  0  0  0  0  0  0  0
   23.4510   19.6205   33.6232 H   0  0  0  0  0  0  0  0  0  0  0  0
   23.9524   18.9541   35.4395 C   0  0  0  0  0  0  0  0  0  0  0  0
   24.5668   20.0877   35.8118 N   0  0  0  0  0  0  0  0  0  0  0  0
   25.0856   20.1335   37.0527 C   0  0  0  0  0  0  0  0  0  0  0  0
   25.0265   19.0874   37.9366 C   0  0  0  0  0  0  0  0  0  0  0  0
   24.3929   17.9659   37.4667 C   0  0  0  0  0  0  0  0  0  0  0  0
   23.8573   17.8746   36.2344 N   0  0  0  0  0  0  0  0  0  0  0  0
 11 12  2  0
 12 13  1  0
 12  1  1  0
  1  2  2  0
  2  3  1  0
  3  4  2  0
  4  5  1  0
  5  6  2  0
  6 17  1  0
 17 18  2  0
 17 19  1  0
 19 21  1  0
 21 22  2  0
 22 23  1  0
 23 24  2  0
 24 27  1  0
 27 28  1  0
 24 25  1  0
 25 26  2  0
  6  7  1  0
  7  8  2  0
  8 31  1  0
 31 33  1  0
 33 34  2  0
 34 35  1  0
 35 36  2  0
 36 37  1  0
 37 38  2  0
  8  9  1  0
  9 10  2  0
 10  1  1  0
  9  4  1  0
 26 21  1  0
 38 33  1  0
 11 14  1  0
 13 15  1  0
 13 16  1  0
 19 20  1  0
 28 29  1  0
 28 30  1  0
 31 32  1  0
M  END
> <minimizedAffinity>
-9.28286

> <CNNscore>
0.9671173096

> <CNNaffinity>
7.1524753571

> <CNN_VS>
6.9172825813

> <CNNaffinity_variance>
0.0543399788

$$$$



 38 41  0  0  0  0  0  0  0  0999 V2000
   19.0724   18.8261   33.6461 C   0  0  0  0  0  0  0  0  0  0  0  0
   18.5609   17.6758   33.0509 C   0  0  0  0  0  0  0  0  0  0  0  0
   19.4022   16.5893   32.8120 C   0  0  0  0  0  0  0  0  0  0  0  0
   20.7642   16.6374   33.1540 C   0  0  0  0  0  0  0  0  0  0  0  0
   21.5746   15.5209   32.9212 C   0  0  0  0  0  0  0  0  0  0  0  0
   22.9259   15.5471   33.2665 C   0  0  0  0  0  0  0  0  0  0  0  0
   23.4897   16.7007   33.8126 C   0  0  0  0  0  0  0  0  0  0  0  0
   22.7170   17.8492   34.0417 C   0  0  0  0  0  0  0  0  0  0  0  0
   21.3193   17.8104   33.7334 C   0  0  0  0  0  0  0  0  0  0  0  0
   20.4336   18.8888   33.9765 C   0  0  0  0  0  0  0  0  0  0  0  0
   16.9111   19.8347   33.9750 N   0  0  0  0  0  0  0  0  0  0  0  0
   18.1922   20.0001   33.9256 C   0  0  0  0  0  0  0  0  0  0  0  0
   18.7266   21.2426   34.1151 N   0  0  0  0  0  0  0  0  0  0  0  0
   16.3224   20.6022   34.1586 H   0  0  0  0  0  0  0  0  0  0  0  0
   18.1369   22.0093   34.2987 H   0  0  0  0  0  0  0  0  0  0  0  0
   19.7014   21.3716   34.0681 H   0  0  0  0  0  0  0  0  0  0  0  0
   23.7949   14.3633   33.0359 C   0  0  0  0  0  0  0  0  0  0  0  0
   24.9510   14.5486   32.6800 O   0  0  0  0  0  0  0  0  0  0  0  0
   23.1760   13.1516   33.2841 N   0  0  0  0  0  0  0  0  0  0  0  0
   22.2483   13.1939   33.6110 H   0  0  0  0  0  0  0  0  0  0  0  0
   23.7237   11.8622   33.1220 C   0  0  0  0  0  0  0  0  0  0  0  0
   23.1312   10.8192   33.8441 C   0  0  0  0  0  0  0  0  0  0  0  0
   23.6108    9.5098   33.7344 C   0  0  0  0  0  0  0  0  0  0  0  0
   24.6984    9.2200   32.9027 C   0  0  0  0  0  0  0  0  0  0  0  0
   25.2819   10.2624   32.1728 C   0  0  0  0  0  0  0  0  0  0  0  0
   24.7995   11.5719   32.2834 C   0  0  0  0  0  0  0  0  0  0  0  0
   25.2034    7.8080   32.7604 C   0  0  0  0  0  0  0  0  0  0  0  0
   25.4143    7.4611   31.3600 N   0  0  0  0  0  0  0  0  0  0  0  0
   24.5303    7.5304   30.8557 H   0  0  0  0  0  0  0  0  0  0  0  0
   25.7685    6.5068   31.2957 H   0  0  0  0  0  0  0  0  0  0  0  0
   23.2749   18.9999   34.6338 N   0  0  0  0  0  0  0  0  0  0  0  0
   23.0999   19.8243   34.1249 H   0  0  0  0  0  0  0  0  0  0  0  0
   24.0222   19.2127   35.7892 C   0  0  0  0  0  0  0  0  0  0  0  0
   24.7752   20.3119   35.9502 N   0  0  0  0  0  0  0  0  0  0  0  0
   25.4756   20.4221   37.0940 C   0  0  0  0  0  0  0  0  0  0  0  0
   25.4645   19.4724   38.0825 C   0  0  0  0  0  0  0  0  0  0  0  0
   24.6789   18.3780   37.8269 C   0  0  0  0  0  0  0  0  0  0  0  0
   23.9596   18.2252   36.6987 N   0  0  0  0  0  0  0  0  0  0  0  0
 11 12  2  0
 12 13  1  0
 12  1  1  0
  1  2  2  0
  2  3  1  0
  3  4  2  0
  4  5  1  0
  5  6  2  0
  6 17  1  0
 17 18  2  0
 17 19  1  0
 19 21  1  0
 21 22  2  0
 22 23  1  0
 23 24  2  0
 24 27  1  0
 27 28  1  0
 24 25  1  0
 25 26  2  0
  6  7  1  0
  7  8  2  0
  8 31  1  0
 31 33  1  0
 33 34  2  0
 34 35  1  0
 35 36  2  0
 36 37  1  0
 37 38  2  0
  8  9  1  0
  9 10  2  0
 10  1  1  0
  9  4  1  0
 26 21  1  0
 38 33  1  0
 11 14  1  0
 13 15  1  0
 13 16  1  0
 19 20  1  0
 28 29  1  0
 28 30  1  0
 31 32  1  0
M  END
> <minimizedAffinity>
-9.85674

> <CNNscore>
0.9408544302

> <CNNaffinity>
7.1716895103

> <CNN_VS>
6.7475156784

> <CNNaffinity_variance>
0.1065917611

$$$$



 38 41  0  0  0  0  0  0  0  0999 V2000
   19.1852   18.7650   33.5114 C   0  0  0  0  0  0  0  0  0  0  0  0
   18.6754   17.6833   32.7979 C   0  0  0  0  0  0  0  0  0  0  0  0
   19.5302   16.6584   32.3932 C   0  0  0  0  0  0  0  0  0  0  0  0
   20.9040   16.7015   32.6854 C   0  0  0  0  0  0  0  0  0  0  0  0
   21.7289   15.6450   32.2842 C   0  0  0  0  0  0  0  0  0  0  0  0
   23.0926   15.6657   32.5774 C   0  0  0  0  0  0  0  0  0  0  0  0
   23.6526   16.7582   33.2405 C   0  0  0  0  0  0  0  0  0  0  0  0
   22.8644   17.8478   33.6406 C   0  0  0  0  0  0  0  0  0  0  0  0
   21.4562   17.8088   33.3844 C   0  0  0  0  0  0  0  0  0  0  0  0
   20.5574   18.8240   33.7940 C   0  0  0  0  0  0  0  0  0  0  0  0
   18.8133   20.9808   34.3766 N   0  0  0  0  0  0  0  0  0  0  0  0
   18.2912   19.8708   33.9689 C   0  0  0  0  0  0  0  0  0  0  0  0
   16.9345   19.7142   33.9722 N   0  0  0  0  0  0  0  0  0  0  0  0
   18.2326   21.7156   34.6801 H   0  0  0  0  0  0  0  0  0  0  0  0
   16.3548   20.4498   34.2758 H   0  0  0  0  0  0  0  0  0  0  0  0
   16.5361   18.8658   33.6710 H   0  0  0  0  0  0  0  0  0  0  0  0
   23.9777   14.5439   32.1676 C   0  0  0  0  0  0  0  0  0  0  0  0
   24.3531   14.4919   31.0041 O   0  0  0  0  0  0  0  0  0  0  0  0
   24.3015   13.6761   33.1947 N   0  0  0  0  0  0  0  0  0  0  0  0
   23.9444   13.8998   34.0844 H   0  0  0  0  0  0  0  0  0  0  0  0
   25.0856   12.5069   33.1115 C   0  0  0  0  0  0  0  0  0  0  0  0
   26.2627   12.4698   33.8687 C   0  0  0  0  0  0  0  0  0  0  0  0
   27.0930   11.3444   33.8465 C   0  0  0  0  0  0  0  0  0  0  0  0
   26.7632   10.2348   33.0600 C   0  0  0  0  0  0  0  0  0  0  0  0
   25.5798   10.2694   32.3128 C   0  0  0  0  0  0  0  0  0  0  0  0
   24.7499   11.3965   32.3374 C   0  0  0  0  0  0  0  0  0  0  0  0
   27.6397    9.0097   33.0516 C   0  0  0  0  0  0  0  0  0  0  0  0
   29.0319    9.3546   33.3132 N   0  0  0  0  0  0  0  0  0  0  0  0
   29.3683    9.9859   32.5860 H   0  0  0  0  0  0  0  0  0  0  0  0
   29.5979    8.5060   33.3152 H   0  0  0  0  0  0  0  0  0  0  0  0
   23.4205   18.9316   34.3492 N   0  0  0  0  0  0  0  0  0  0  0  0
   23.3575   19.7870   33.8661 H   0  0  0  0  0  0  0  0  0  0  0  0
   24.0404   19.0435   35.5910 C   0  0  0  0  0  0  0  0  0  0  0  0
   23.9463   18.0762   36.5165 N   0  0  0  0  0  0  0  0  0  0  0  0
   24.5659   18.2811   37.6935 C   0  0  0  0  0  0  0  0  0  0  0  0
   25.2684   19.4202   37.9904 C   0  0  0  0  0  0  0  0  0  0  0  0
   25.3001   20.3592   36.9917 C   0  0  0  0  0  0  0  0  0  0  0  0
   24.6974   20.1974   35.7983 N   0  0  0  0  0  0  0  0  0  0  0  0
 11 12  2  0
 12 13  1  0
 12  1  1  0
  1  2  2  0
  2  3  1  0
  3  4  2  0
  4  5  1  0
  5  6  2  0
  6 17  1  0
 17 18  2  0
 17 19  1  0
 19 21  1  0
 21 22  2  0
 22 23  1  0
 23 24  2  0
 24 27  1  0
 27 28  1  0
 24 25  1  0
 25 26  2  0
  6  7  1  0
  7  8  2  0
  8 31  1  0
 31 33  1  0
 33 34  2  0
 34 35  1  0
 35 36  2  0
 36 37  1  0
 37 38  2  0
  8  9  1  0
  9 10  2  0
 10  1  1  0
  9  4  1  0
 26 21  1  0
 38 33  1  0
 11 14  1  0
 13 15  1  0
 13 16  1  0
 19 20  1  0
 28 29  1  0
 28 30  1  0
 31 32  1  0
M  END
> <minimizedAffinity>
-8.73430

> <CNNscore>
0.9040715098

> <CNNaffinity>
6.9505829811

> <CNN_VS>
6.2838239670

> <CNNaffinity_variance>
0.0121129304

$$$$



 38 41  0  0  0  0  0  0  0  0999 V2000
   19.1379   18.5621   33.7894 C   0  0  0  0  0  0  0  0  0  0  0  0
   18.4456   17.3938   33.4815 C   0  0  0  0  0  0  0  0  0  0  0  0
   19.1508   16.2108   33.2617 C   0  0  0  0  0  0  0  0  0  0  0  0
   20.5536   16.1777   33.3364 C   0  0  0  0  0  0  0  0  0  0  0  0
   21.2278   14.9688   33.1328 C   0  0  0  0  0  0  0  0  0  0  0  0
   22.6193   14.9156   33.2161 C   0  0  0  0  0  0  0  0  0  0  0  0
   23.3534   16.0756   33.4662 C   0  0  0  0  0  0  0  0  0  0  0  0
   22.7174   17.3120   33.6545 C   0  0  0  0  0  0  0  0  0  0  0  0
   21.2869   17.3622   33.6176 C   0  0  0  0  0  0  0  0  0  0  0  0
   20.5385   18.5420   33.8508 C   0  0  0  0  0  0  0  0  0  0  0  0
   19.0802   20.9119   34.3106 N   0  0  0  0  0  0  0  0  0  0  0  0
   18.4083   19.8407   34.0425 C   0  0  0  0  0  0  0  0  0  0  0  0
   17.0436   19.8836   34.0061 N   0  0  0  0  0  0  0  0  0  0  0  0
   18.6086   21.7596   34.4789 H   0  0  0  0  0  0  0  0  0  0  0  0
   16.5732   20.7319   34.1744 H   0  0  0  0  0  0  0  0  0  0  0  0
   16.5304   19.0663   33.8115 H   0  0  0  0  0  0  0  0  0  0  0  0
   23.3468   13.6352   33.0141 C   0  0  0  0  0  0  0  0  0  0  0  0
   23.0215   12.6666   33.6875 O   0  0  0  0  0  0  0  0  0  0  0  0
   24.3234   13.6889   32.0361 N   0  0  0  0  0  0  0  0  0  0  0  0
   24.4176   14.5453   31.5597 H   0  0  0  0  0  0  0  0  0  0  0  0
   25.1993   12.6555   31.6442 C   0  0  0  0  0  0  0  0  0  0  0  0
   26.1870   12.9750   30.7047 C   0  0  0  0  0  0  0  0  0  0  0  0
   27.0991   12.0086   30.2682 C   0  0  0  0  0  0  0  0  0  0  0  0
   27.0362   10.7001   30.7604 C   0  0  0  0  0  0  0  0  0  0  0  0
   26.0552   10.3858   31.7084 C   0  0  0  0  0  0  0  0  0  0  0  0
   25.1440   11.3550   32.1445 C   0  0  0  0  0  0  0  0  0  0  0  0
   28.0315    9.6612   30.3138 C   0  0  0  0  0  0  0  0  0  0  0  0
   29.3109   10.2694   29.9689 N   0  0  0  0  0  0  0  0  0  0  0  0
   29.1785   10.9275   29.2009 H   0  0  0  0  0  0  0  0  0  0  0  0
   29.9673    9.5424   29.6843 H   0  0  0  0  0  0  0  0  0  0  0  0
   23.4545   18.4759   33.9507 N   0  0  0  0  0  0  0  0  0  0  0  0
   23.0282   19.0449   34.6318 H   0  0  0  0  0  0  0  0  0  0  0  0
   24.6606   18.9882   33.4801 C   0  0  0  0  0  0  0  0  0  0  0  0
   25.4601   19.7368   34.2557 N   0  0  0  0  0  0  0  0  0  0  0  0
   26.5981   20.2015   33.7079 C   0  0  0  0  0  0  0  0  0  0  0  0
   26.9673   19.9587   32.4103 C   0  0  0  0  0  0  0  0  0  0  0  0
   26.0846   19.1970   31.6887 C   0  0  0  0  0  0  0  0  0  0  0  0
   24.9357   18.7091   32.1945 N   0  0  0  0  0  0  0  0  0  0  0  0
 11 12  2  0
 12 13  1  0
 12  1  1  0
  1  2  2  0
  2  3  1  0
  3  4  2  0
  4  5  1  0
  5  6  2  0
  6 17  1  0
 17 18  2  0
 17 19  1  0
 19 21  1  0
 21 22  2  0
 22 23  1  0
 23 24  2  0
 24 27  1  0
 27 28  1  0
 24 25  1  0
 25 26  2  0
  6  7  1  0
  7  8  2  0
  8 31  1  0
 31 33  1  0
 33 34  2  0
 34 35  1  0
 35 36  2  0
 36 37  1  0
 37 38  2  0
  8  9  1  0
  9 10  2  0
 10  1  1  0
  9  4  1  0
 26 21  1  0
 38 33  1  0
 11 14  1  0
 13 15  1  0
 13 16  1  0
 19 20  1  0
 28 29  1  0
 28 30  1  0
 31 32  1  0
M  END
> <minimizedAffinity>
-8.37558

> <CNNscore>
0.8649024963

> <CNNaffinity>
6.8986964226

> <CNN_VS>
5.9666996002

> <CNNaffinity_variance>
0.0132792601

$$$$



 38 41  0  0  0  0  0  0  0  0999 V2000
   19.1919   18.6187   33.7999 C   0  0  0  0  0  0  0  0  0  0  0  0
   18.6222   17.4048   33.4243 C   0  0  0  0  0  0  0  0  0  0  0  0
   19.4367   16.2882   33.2372 C   0  0  0  0  0  0  0  0  0  0  0  0
   20.8286   16.3679   33.4124 C   0  0  0  0  0  0  0  0  0  0  0  0
   21.6132   15.2227   33.2388 C   0  0  0  0  0  0  0  0  0  0  0  0
   22.9950   15.2812   33.4215 C   0  0  0  0  0  0  0  0  0  0  0  0
   23.6111   16.4914   33.7422 C   0  0  0  0  0  0  0  0  0  0  0  0
   22.8633   17.6675   33.9037 C   0  0  0  0  0  0  0  0  0  0  0  0
   21.4397   17.6018   33.7645 C   0  0  0  0  0  0  0  0  0  0  0  0
   20.5816   18.7113   33.9618 C   0  0  0  0  0  0  0  0  0  0  0  0
   18.9072   20.9564   34.3003 N   0  0  0  0  0  0  0  0  0  0  0  0
   18.3429   19.8278   34.0198 C   0  0  0  0  0  0  0  0  0  0  0  0
   16.9818   19.7477   33.9406 N   0  0  0  0  0  0  0  0  0  0  0  0
   18.3564   21.7591   34.4471 H   0  0  0  0  0  0  0  0  0  0  0  0
   16.4320   20.5511   34.0874 H   0  0  0  0  0  0  0  0  0  0  0  0
   16.5504   18.8866   33.7366 H   0  0  0  0  0  0  0  0  0  0  0  0
   23.8385   14.0690   33.2522 C   0  0  0  0  0  0  0  0  0  0  0  0
   25.0444   14.2135   33.1021 O   0  0  0  0  0  0  0  0  0  0  0  0
   23.1357   12.8792   33.3113 N   0  0  0  0  0  0  0  0  0  0  0  0
   22.1694   12.9511   33.4856 H   0  0  0  0  0  0  0  0  0  0  0  0
   23.6468   11.5748   33.1499 C   0  0  0  0  0  0  0  0  0  0  0  0
   23.3844   10.6533   34.1708 C   0  0  0  0  0  0  0  0  0  0  0  0
   23.8506    9.3374   34.0846 C   0  0  0  0  0  0  0  0  0  0  0  0
   24.5947    8.9196   32.9754 C   0  0  0  0  0  0  0  0  0  0  0  0
   24.8459    9.8394   31.9504 C   0  0  0  0  0  0  0  0  0  0  0  0
   24.3774   11.1557   32.0385 C   0  0  0  0  0  0  0  0  0  0  0  0
   25.0777    7.4971   32.8644 C   0  0  0  0  0  0  0  0  0  0  0  0
   25.4580    7.1739   31.4944 N   0  0  0  0  0  0  0  0  0  0  0  0
   24.6482    7.2787   30.8831 H   0  0  0  0  0  0  0  0  0  0  0  0
   25.7931    6.2114   31.4527 H   0  0  0  0  0  0  0  0  0  0  0  0
   23.4787   18.8809   34.2707 N   0  0  0  0  0  0  0  0  0  0  0  0
   22.8359   19.5961   34.4817 H   0  0  0  0  0  0  0  0  0  0  0  0
   24.8072   19.2780   34.3969 C   0  0  0  0  0  0  0  0  0  0  0  0
   25.5324   19.6638   33.3356 N   0  0  0  0  0  0  0  0  0  0  0  0
   26.8132   20.0146   33.5536 C   0  0  0  0  0  0  0  0  0  0  0  0
   27.4058   19.9856   34.7894 C   0  0  0  0  0  0  0  0  0  0  0  0
   26.5945   19.5662   35.8121 C   0  0  0  0  0  0  0  0  0  0  0  0
   25.3076   19.2074   35.6423 N   0  0  0  0  0  0  0  0  0  0  0  0
 11 12  2  0
 12 13  1  0
 12  1  1  0
  1  2  2  0
  2  3  1  0
  3  4  2  0
  4  5  1  0
  5  6  2  0
  6 17  1  0
 17 18  2  0
 17 19  1  0
 19 21  1  0
 21 22  2  0
 22 23  1  0
 23 24  2  0
 24 27  1  0
 27 28  1  0
 24 25  1  0
 25 26  2  0
  6  7  1  0
  7  8  2  0
  8 31  1  0
 31 33  1  0
 33 34  2  0
 34 35  1  0
 35 36  2  0
 36 37  1  0
 37 38  2  0
  8  9  1  0
  9 10  2  0
 10  1  1  0
  9  4  1  0
 26 21  1  0
 38 33  1  0
 11 14  1  0
 13 15  1  0
 13 16  1  0
 19 20  1  0
 28 29  1  0
 28 30  1  0
 31 32  1  0
M  END
> <minimizedAffinity>
-9.33413

> <CNNscore>
0.8512690663

> <CNNaffinity>
6.8216567039

> <CNN_VS>
5.8070654869

> <CNNaffinity_variance>
0.1050874516

$$$$



 38 41  0  0  0  0  0  0  0  0999 V2000
   25.4163    9.1685   31.5662 C   0  0  0  0  0  0  0  0  0  0  0  0
   24.2475    9.0675   32.3163 C   0  0  0  0  0  0  0  0  0  0  0  0
   23.6300   10.2241   32.7919 C   0  0  0  0  0  0  0  0  0  0  0  0
   24.1727   11.4944   32.5348 C   0  0  0  0  0  0  0  0  0  0  0  0
   23.5148   12.6351   33.0076 C   0  0  0  0  0  0  0  0  0  0  0  0
   24.0329   13.9045   32.7503 C   0  0  0  0  0  0  0  0  0  0  0  0
   25.2323   14.0459   32.0513 C   0  0  0  0  0  0  0  0  0  0  0  0
   25.9347   12.9269   31.5790 C   0  0  0  0  0  0  0  0  0  0  0  0
   25.3817   11.6246   31.7991 C   0  0  0  0  0  0  0  0  0  0  0  0
   25.9735   10.4310   31.3179 C   0  0  0  0  0  0  0  0  0  0  0  0
   26.8110    8.0374   29.9624 N   0  0  0  0  0  0  0  0  0  0  0  0
   26.0923    7.9479   31.0331 C   0  0  0  0  0  0  0  0  0  0  0  0
   25.9469    6.7417   31.6571 N   0  0  0  0  0  0  0  0  0  0  0  0
   27.2605    7.2387   29.6030 H   0  0  0  0  0  0  0  0  0  0  0  0
   26.3970    5.9437   31.2969 H   0  0  0  0  0  0  0  0  0  0  0  0
   25.3919    6.6703   32.4671 H   0  0  0  0  0  0  0  0  0  0  0  0
   23.3372   15.1249   33.2363 C   0  0  0  0  0  0  0  0  0  0  0  0
   23.9284   15.8636   34.0124 O   0  0  0  0  0  0  0  0  0  0  0  0
   22.0680   15.2970   32.7143 N   0  0  0  0  0  0  0  0  0  0  0  0
   21.7687   14.6225   32.0626 H   0  0  0  0  0  0  0  0  0  0  0  0
   21.1541   16.3295   33.0102 C   0  0  0  0  0  0  0  0  0  0  0  0
   19.9650   16.3633   32.2718 C   0  0  0  0  0  0  0  0  0  0  0  0
   19.0036   17.3514   32.5079 C   0  0  0  0  0  0  0  0  0  0  0  0
   19.2170   18.3297   33.4856 C   0  0  0  0  0  0  0  0  0  0  0  0
   20.4015   18.2871   34.2307 C   0  0  0  0  0  0  0  0  0  0  0  0
   21.3618   17.2965   33.9933 C   0  0  0  0  0  0  0  0  0  0  0  0
   18.1745   19.3812   33.7626 C   0  0  0  0  0  0  0  0  0  0  0  0
   18.6379   20.3333   34.7650 N   0  0  0  0  0  0  0  0  0  0  0  0
   18.8276   19.8420   35.6385 H   0  0  0  0  0  0  0  0  0  0  0  0
   17.9187   21.0394   34.9213 H   0  0  0  0  0  0  0  0  0  0  0  0
   27.1228   13.0698   30.8350 N   0  0  0  0  0  0  0  0  0  0  0  0
   27.7337   13.7491   31.2019 H   0  0  0  0  0  0  0  0  0  0  0  0
   27.6121   12.4495   29.6884 C   0  0  0  0  0  0  0  0  0  0  0  0
   28.8146   11.8539   29.6667 N   0  0  0  0  0  0  0  0  0  0  0  0
   29.2095   11.2951   28.5078 C   0  0  0  0  0  0  0  0  0  0  0  0
   28.4564   11.3160   27.3626 C   0  0  0  0  0  0  0  0  0  0  0  0
   27.2494   11.9571   27.4734 C   0  0  0  0  0  0  0  0  0  0  0  0
   26.8118   12.5286   28.6116 N   0  0  0  0  0  0  0  0  0  0  0  0
 11 12  2  0
 12 13  1  0
 12  1  1  0
  1  2  2  0
  2  3  1  0
  3  4  2  0
  4  5  1  0
  5  6  2  0
  6 17  1  0
 17 18  2  0
 17 19  1  0
 19 21  1  0
 21 22  2  0
 22 23  1  0
 23 24  2  0
 24 27  1  0
 27 28  1  0
 24 25  1  0
 25 26  2  0
  6  7  1  0
  7  8  2  0
  8 31  1  0
 31 33  1  0
 33 34  2  0
 34 35  1  0
 35 36  2  0
 36 37  1  0
 37 38  2  0
  8  9  1  0
  9 10  2  0
 10  1  1  0
  9  4  1  0
 26 21  1  0
 38 33  1  0
 11 14  1  0
 13 15  1  0
 13 16  1  0
 19 20  1  0
 28 29  1  0
 28 30  1  0
 31 32  1  0
M  END
> <minimizedAffinity>
-8.72682

> <CNNscore>
0.5708971620

> <CNNaffinity>
6.8910479546

> <CNN_VS>
3.9340796471

> <CNNaffinity_variance>
0.0496246256

$$$$



 38 41  0  0  0  0  0  0  0  0999 V2000
   25.4732    9.6053   31.5747 C   0  0  0  0  0  0  0  0  0  0  0  0
   24.2579    9.4543   32.2376 C   0  0  0  0  0  0  0  0  0  0  0  0
   23.5970   10.5782   32.7326 C   0  0  0  0  0  0  0  0  0  0  0  0
   24.1413   11.8649   32.5822 C   0  0  0  0  0  0  0  0  0  0  0  0
   23.4403   12.9728   33.0708 C   0  0  0  0  0  0  0  0  0  0  0  0
   23.9601   14.2583   32.9185 C   0  0  0  0  0  0  0  0  0  0  0  0
   25.2019   14.4470   32.3108 C   0  0  0  0  0  0  0  0  0  0  0  0
   25.9470   13.3611   31.8269 C   0  0  0  0  0  0  0  0  0  0  0  0
   25.3952   12.0445   31.9380 C   0  0  0  0  0  0  0  0  0  0  0  0
   26.0314   10.8838   31.4337 C   0  0  0  0  0  0  0  0  0  0  0  0
   26.8781    8.5460   29.9314 N   0  0  0  0  0  0  0  0  0  0  0  0
   26.1971    8.4210   31.0229 C   0  0  0  0  0  0  0  0  0  0  0  0
   26.1344    7.2103   31.6520 N   0  0  0  0  0  0  0  0  0  0  0  0
   27.3588    7.7714   29.5596 H   0  0  0  0  0  0  0  0  0  0  0  0
   26.6156    6.4365   31.2793 H   0  0  0  0  0  0  0  0  0  0  0  0
   25.6081    7.1115   32.4781 H   0  0  0  0  0  0  0  0  0  0  0  0
   23.2196   15.4448   33.4221 C   0  0  0  0  0  0  0  0  0  0  0  0
   23.7470   16.1413   34.2790 O   0  0  0  0  0  0  0  0  0  0  0  0
   21.9890   15.6391   32.8214 N   0  0  0  0  0  0  0  0  0  0  0  0
   21.7435   15.0014   32.1128 H   0  0  0  0  0  0  0  0  0  0  0  0
   21.0463   16.6476   33.1093 C   0  0  0  0  0  0  0  0  0  0  0  0
   21.5426   17.8860   33.5341 C   0  0  0  0  0  0  0  0  0  0  0  0
   20.6742   18.9407   33.8338 C   0  0  0  0  0  0  0  0  0  0  0  0
   19.2894   18.7738   33.7192 C   0  0  0  0  0  0  0  0  0  0  0  0
   18.7958   17.5385   33.2832 C   0  0  0  0  0  0  0  0  0  0  0  0
   19.6671   16.4846   32.9829 C   0  0  0  0  0  0  0  0  0  0  0  0
   18.3499   19.9133   34.0157 C   0  0  0  0  0  0  0  0  0  0  0  0
   16.9606   19.4714   33.9953 N   0  0  0  0  0  0  0  0  0  0  0  0
   16.7324   19.1096   33.0693 H   0  0  0  0  0  0  0  0  0  0  0  0
   16.3500   20.2591   34.2125 H   0  0  0  0  0  0  0  0  0  0  0  0
   27.1806   13.5538   31.1736 N   0  0  0  0  0  0  0  0  0  0  0  0
   27.8077   12.8046   31.2953 H   0  0  0  0  0  0  0  0  0  0  0  0
   27.6967   14.5838   30.3917 C   0  0  0  0  0  0  0  0  0  0  0  0
   28.0321   14.3940   29.1062 N   0  0  0  0  0  0  0  0  0  0  0  0
   28.5385   15.4450   28.4353 C   0  0  0  0  0  0  0  0  0  0  0  0
   28.7353   16.6790   28.9992 C   0  0  0  0  0  0  0  0  0  0  0  0
   28.3773   16.7774   30.3191 C   0  0  0  0  0  0  0  0  0  0  0  0
   27.8654   15.7545   31.0300 N   0  0  0  0  0  0  0  0  0  0  0  0
 11 12  2  0
 12 13  1  0
 12  1  1  0
  1  2  2  0
  2  3  1  0
  3  4  2  0
  4  5  1  0
  5  6  2  0
  6 17  1  0
 17 18  2  0
 17 19  1  0
 19 21  1  0
 21 22  2  0
 22 23  1  0
 23 24  2  0
 24 27  1  0
 27 28  1  0
 24 25  1  0
 25 26  2  0
  6  7  1  0
  7  8  2  0
  8 31  1  0
 31 33  1  0
 33 34  2  0
 34 35  1  0
 35 36  2  0
 36 37  1  0
 37 38  2  0
  8  9  1  0
  9 10  2  0
 10  1  1  0
  9  4  1  0
 26 21  1  0
 38 33  1  0
 11 14  1  0
 13 15  1  0
 13 16  1  0
 19 20  1  0
 28 29  1  0
 28 30  1  0
 31 32  1  0
M  END
> <minimizedAffinity>
-8.09119

> <CNNscore>
0.4961535931

> <CNNaffinity>
6.9236259460

> <CNN_VS>
3.4351818562

> <CNNaffinity_variance>
0.0920972005

$$$$



 38 41  0  0  0  0  0  0  0  0999 V2000
   26.8222    8.1927   30.5977 C   0  0  0  0  0  0  0  0  0  0  0  0
   25.7686    7.6847   31.3533 C   0  0  0  0  0  0  0  0  0  0  0  0
   24.8742    8.5607   31.9679 C   0  0  0  0  0  0  0  0  0  0  0  0
   25.0223    9.9526   31.8458 C   0  0  0  0  0  0  0  0  0  0  0  0
   24.0935   10.8022   32.4566 C   0  0  0  0  0  0  0  0  0  0  0  0
   24.2183   12.1863   32.3346 C   0  0  0  0  0  0  0  0  0  0  0  0
   25.2922   12.7362   31.6338 C   0  0  0  0  0  0  0  0  0  0  0  0
   26.2576   11.9200   31.0252 C   0  0  0  0  0  0  0  0  0  0  0  0
   26.1068   10.4985   31.1071 C   0  0  0  0  0  0  0  0  0  0  0  0
   26.9868    9.5804   30.4833 C   0  0  0  0  0  0  0  0  0  0  0  0
   27.4617    6.7362   28.7905 N   0  0  0  0  0  0  0  0  0  0  0  0
   27.7879    7.2783   29.9177 C   0  0  0  0  0  0  0  0  0  0  0  0
   29.0009    7.0015   30.4811 N   0  0  0  0  0  0  0  0  0  0  0  0
   28.0911    6.1320   28.3344 H   0  0  0  0  0  0  0  0  0  0  0  0
   29.6295    6.3973   30.0240 H   0  0  0  0  0  0  0  0  0  0  0  0
   29.2465    7.4061   31.3443 H   0  0  0  0  0  0  0  0  0  0  0  0
   23.2314   13.0996   32.9682 C   0  0  0  0  0  0  0  0  0  0  0  0
   22.4718   12.6431   33.8121 O   0  0  0  0  0  0  0  0  0  0  0  0
   23.3101   14.4086   32.5286 N   0  0  0  0  0  0  0  0  0  0  0  0
   24.0180   14.6075   31.8739 H   0  0  0  0  0  0  0  0  0  0  0  0
   22.4910   15.4906   32.9122 C   0  0  0  0  0  0  0  0  0  0  0  0
   22.9859   16.3495   33.9009 C   0  0  0  0  0  0  0  0  0  0  0  0
   22.2382   17.4497   34.3332 C   0  0  0  0  0  0  0  0  0  0  0  0
   20.9759   17.7084   33.7869 C   0  0  0  0  0  0  0  0  0  0  0  0
   20.4880   16.8550   32.7902 C   0  0  0  0  0  0  0  0  0  0  0  0
   21.2387   15.7550   32.3585 C   0  0  0  0  0  0  0  0  0  0  0  0
   20.1766   18.9060   34.2295 C   0  0  0  0  0  0  0  0  0  0  0  0
   19.1108   19.2092   33.2819 N   0  0  0  0  0  0  0  0  0  0  0  0
   19.5165   19.4223   32.3707 H   0  0  0  0  0  0  0  0  0  0  0  0
   18.5793   20.0139   33.6141 H   0  0  0  0  0  0  0  0  0  0  0  0
   27.3181   12.4729   30.2800 N   0  0  0  0  0  0  0  0  0  0  0  0
   27.8182   13.1662   30.7683 H   0  0  0  0  0  0  0  0  0  0  0  0
   27.8055   12.2420   28.9963 C   0  0  0  0  0  0  0  0  0  0  0  0
   26.9866   12.1428   27.9376 N   0  0  0  0  0  0  0  0  0  0  0  0
   27.5485   11.9022   26.7387 C   0  0  0  0  0  0  0  0  0  0  0  0
   28.8977   11.7446   26.5535 C   0  0  0  0  0  0  0  0  0  0  0  0
   29.6556   11.8485   27.6914 C   0  0  0  0  0  0  0  0  0  0  0  0
   29.1381   12.0900   28.9111 N   0  0  0  0  0  0  0  0  0  0  0  0
 11 12  2  0
 12 13  1  0
 12  1  1  0
  1  2  2  0
  2  3  1  0
  3  4  2  0
  4  5  1  0
  5  6  2  0
  6 17  1  0
 17 18  2  0
 17 19  1  0
 19 21  1  0
 21 22  2  0
 22 23  1  0
 23 24  2  0
 24 27  1  0
 27 28  1  0
 24 25  1  0
 25 26  2  0
  6  7  1  0
  7  8  2  0
  8 31  1  0
 31 33  1  0
 33 34  2  0
 34 35  1  0
 35 36  2  0
 36 37  1  0
 37 38  2  0
  8  9  1  0
  9 10  2  0
 10  1  1  0
  9  4  1  0
 26 21  1  0
 38 33  1  0
 11 14  1  0
 13 15  1  0
 13 16  1  0
 19 20  1  0
 28 29  1  0
 28 30  1  0
 31 32  1  0
M  END
> <minimizedAffinity>
-7.94451

> <CNNscore>
0.4951590598

> <CNNaffinity>
6.5955662727

> <CNN_VS>
3.2658543587

> <CNNaffinity_variance>
0.2213870287

$$$$



 38 41  0  0  0  0  0  0  0  0999 V2000
   24.8844    9.2630   33.1399 C   0  0  0  0  0  0  0  0  0  0  0  0
   23.7878    9.4761   33.9712 C   0  0  0  0  0  0  0  0  0  0  0  0
   23.1912   10.7358   34.0180 C   0  0  0  0  0  0  0  0  0  0  0  0
   23.6837   11.8011   33.2454 C   0  0  0  0  0  0  0  0  0  0  0  0
   23.0468   13.0457   33.2993 C   0  0  0  0  0  0  0  0  0  0  0  0
   23.5149   14.1104   32.5290 C   0  0  0  0  0  0  0  0  0  0  0  0
   24.6455   13.9537   31.7264 C   0  0  0  0  0  0  0  0  0  0  0  0
   25.3263   12.7287   31.6607 C   0  0  0  0  0  0  0  0  0  0  0  0
   24.8209   11.6198   32.4125 C   0  0  0  0  0  0  0  0  0  0  0  0
   25.3923   10.3242   32.3771 C   0  0  0  0  0  0  0  0  0  0  0  0
   25.1862    6.9960   33.8922 N   0  0  0  0  0  0  0  0  0  0  0  0
   25.5356    7.9211   33.0597 C   0  0  0  0  0  0  0  0  0  0  0  0
   26.5015    7.6695   32.1275 N   0  0  0  0  0  0  0  0  0  0  0  0
   25.6095    6.1082   33.8475 H   0  0  0  0  0  0  0  0  0  0  0  0
   26.9240    6.7813   32.0838 H   0  0  0  0  0  0  0  0  0  0  0  0
   26.7754    8.3763   31.4993 H   0  0  0  0  0  0  0  0  0  0  0  0
   22.8399   15.4342   32.5677 C   0  0  0  0  0  0  0  0  0  0  0  0
   23.4836   16.4268   32.2549 O   0  0  0  0  0  0  0  0  0  0  0  0
   21.5098   15.3790   32.9430 N   0  0  0  0  0  0  0  0  0  0  0  0
   21.1416   14.4824   33.1154 H   0  0  0  0  0  0  0  0  0  0  0  0
   20.6215   16.4620   33.1067 C   0  0  0  0  0  0  0  0  0  0  0  0
   20.9845   17.4550   34.0245 C   0  0  0  0  0  0  0  0  0  0  0  0
   20.1615   18.5652   34.2409 C   0  0  0  0  0  0  0  0  0  0  0  0
   18.9546   18.6999   33.5455 C   0  0  0  0  0  0  0  0  0  0  0  0
   18.5992   17.7117   32.6198 C   0  0  0  0  0  0  0  0  0  0  0  0
   19.4250   16.6020   32.4041 C   0  0  0  0  0  0  0  0  0  0  0  0
   18.0762   19.9056   33.7550 C   0  0  0  0  0  0  0  0  0  0  0  0
   18.7922   20.9654   34.4550 N   0  0  0  0  0  0  0  0  0  0  0  0
   19.0865   20.6288   35.3718 H   0  0  0  0  0  0  0  0  0  0  0  0
   18.1784   21.7719   34.5700 H   0  0  0  0  0  0  0  0  0  0  0  0
   26.4418   12.5563   30.8171 N   0  0  0  0  0  0  0  0  0  0  0  0
   26.5276   13.2609   30.1348 H   0  0  0  0  0  0  0  0  0  0  0  0
   27.4479   11.5962   30.7483 C   0  0  0  0  0  0  0  0  0  0  0  0
   27.4089   10.5958   29.8545 N   0  0  0  0  0  0  0  0  0  0  0  0
   28.4183    9.7060   29.8746 C   0  0  0  0  0  0  0  0  0  0  0  0
   29.4631    9.7669   30.7601 C   0  0  0  0  0  0  0  0  0  0  0  0
   29.4137   10.8135   31.6446 C   0  0  0  0  0  0  0  0  0  0  0  0
   28.4256   11.7284   31.6609 N   0  0  0  0  0  0  0  0  0  0  0  0
 11 12  2  0
 12 13  1  0
 12  1  1  0
  1  2  2  0
  2  3  1  0
  3  4  2  0
  4  5  1  0
  5  6  2  0
  6 17  1  0
 17 18  2  0
 17 19  1  0
 19 21  1  0
 21 22  2  0
 22 23  1  0
 23 24  2  0
 24 27  1  0
 27 28  1  0
 24 25  1  0
 25 26  2  0
  6  7  1  0
  7  8  2  0
  8 31  1  0
 31 33  1  0
 33 34  2  0
 34 35  1  0
 35 36  2  0
 36 37  1  0
 37 38  2  0
  8  9  1  0
  9 10  2  0
 10  1  1  0
  9  4  1  0
 26 21  1  0
 38 33  1  0
 11 14  1  0
 13 15  1  0
 13 16  1  0
 19 20  1  0
 28 29  1  0
 28 30  1  0
 31 32  1  0
M  END
> <minimizedAffinity>
-8.16864

> <CNNscore>
0.4650631547

> <CNNaffinity>
6.7398867607

> <CNN_VS>
3.1344730854

> <CNNaffinity_variance>
0.0270186141

$$$$
