


 44 48  0  0  0  0  0  0  0  0999 V2000
  -26.2291  -54.3420  -12.2341 C   0  0  0  0  0  0  0  0  0  0  0  0
  -24.7876  -52.4819  -12.9557 N   0  0  0  0  0  0  0  0  0  0  0  0
  -25.5273  -53.0072  -11.9200 C   0  0  0  0  0  0  0  0  0  0  0  0
  -25.6197  -52.4552  -10.8236 O   0  0  0  0  0  0  0  0  0  0  0  0
  -24.7747  -52.9398  -13.8272 H   0  0  0  0  0  0  0  0  0  0  0  0
  -24.0303  -51.2650  -12.7752 C   0  0  0  0  0  0  0  0  0  0  0  0
  -18.5671  -47.9108  -11.3173 N   0  0  0  0  0  0  0  0  0  0  0  0
  -19.6041  -48.7814  -11.6392 C   0  0  0  0  0  0  0  0  0  0  0  0
  -20.9094  -48.3339  -11.6843 C   0  0  0  0  0  0  0  0  0  0  0  0
  -21.9102  -49.2352  -12.0342 C   0  0  0  0  0  0  0  0  0  0  0  0
  -21.5922  -50.5719  -12.3429 C   0  0  0  0  0  0  0  0  0  0  0  0
  -22.5524  -51.5593  -12.7105 C   0  0  0  0  0  0  0  0  0  0  0  0
  -22.1254  -52.8692  -12.9797 C   0  0  0  0  0  0  0  0  0  0  0  0
  -20.7779  -53.1970  -12.9086 C   0  0  0  0  0  0  0  0  0  0  0  0
  -19.8469  -52.2204  -12.5579 C   0  0  0  0  0  0  0  0  0  0  0  0
  -20.2233  -50.9174  -12.2706 C   0  0  0  0  0  0  0  0  0  0  0  0
  -19.2597  -50.0442  -11.9284 N   0  0  0  0  0  0  0  0  0  0  0  0
  -18.7634  -46.9717  -11.0965 H   0  0  0  0  0  0  0  0  0  0  0  0
  -17.6372  -48.2340  -11.3105 H   0  0  0  0  0  0  0  0  0  0  0  0
  -26.4083  -55.0663  -10.9799 N   0  0  0  0  0  0  0  0  0  0  0  0
  -27.5577  -54.9799  -10.2388 C   0  0  0  0  0  0  0  0  0  0  0  0
  -28.5411  -54.3423  -10.5985 O   0  0  0  0  0  0  0  0  0  0  0  0
  -25.6762  -55.6382  -10.6541 H   0  0  0  0  0  0  0  0  0  0  0  0
  -27.5777  -55.7197   -8.9479 C   0  0  0  0  0  0  0  0  0  0  0  0
  -26.4364  -55.8468   -8.1474 C   0  0  0  0  0  0  0  0  0  0  0  0
  -26.5059  -56.5526   -6.9456 C   0  0  0  0  0  0  0  0  0  0  0  0
  -27.7197  -57.1100   -6.5384 C   0  0  0  0  0  0  0  0  0  0  0  0
  -27.7635  -57.8451   -5.3472 N   0  0  0  0  0  0  0  0  0  0  0  0
  -28.8906  -58.4575   -4.8746 C   0  0  0  0  0  0  0  0  0  0  0  0
  -28.8894  -59.1171   -3.8413 O   0  0  0  0  0  0  0  0  0  0  0  0
  -30.1272  -58.2748   -5.6616 C   0  0  0  0  0  0  0  0  0  0  0  0
  -30.1326  -57.5583   -6.7907 C   0  0  0  0  0  0  0  0  0  0  0  0
  -31.3186  -57.3592   -7.4673 O   0  0  0  0  0  0  0  0  0  0  0  0
  -28.8879  -56.9584   -7.3067 C   0  0  0  0  0  0  0  0  0  0  0  0
  -28.7984  -56.2696   -8.5233 C   0  0  0  0  0  0  0  0  0  0  0  0
  -26.9357  -57.9254   -4.8204 H   0  0  0  0  0  0  0  0  0  0  0  0
  -32.1120  -57.7383   -7.1435 H   0  0  0  0  0  0  0  0  0  0  0  0
  -27.5448  -54.1417  -13.0095 C   0  0  0  0  0  0  0  0  0  0  0  0
  -27.7656  -55.1210  -14.1425 C   0  0  0  0  0  0  0  0  0  0  0  0
  -28.8187  -56.0453  -14.0798 C   0  0  0  0  0  0  0  0  0  0  0  0
  -29.0420  -56.9384  -15.1282 C   0  0  0  0  0  0  0  0  0  0  0  0
  -28.2159  -56.9173  -16.2496 C   0  0  0  0  0  0  0  0  0  0  0  0
  -27.1645  -56.0054  -16.3217 C   0  0  0  0  0  0  0  0  0  0  0  0
  -26.9382  -55.1123  -15.2731 C   0  0  0  0  0  0  0  0  0  0  0  0
  7  8  1  0
  8  9  2  0
  9 10  1  0
 10 11  2  0
 11 12  1  0
 12  6  1  0
  6  2  1  0
  2  3  1  0
  3  4  2  0
  3  1  1  0
  1 38  1  0
 38 39  1  0
 39 40  2  0
 40 41  1  0
 41 42  2  0
 42 43  1  0
 43 44  2  0
  1 20  1  0
 20 21  1  0
 21 22  2  0
 21 24  1  0
 24 25  2  0
 25 26  1  0
 26 27  2  0
 27 28  1  0
 28 29  1  0
 29 30  2  0
 29 31  1  0
 31 32  2  0
 32 33  1  0
 32 34  1  0
 34 35  2  0
 12 13  2  0
 13 14  1  0
 14 15  2  0
 15 16  1  0
 16 17  2  0
 17  8  1  0
 16 11  1  0
 44 39  1  0
 35 24  1  0
 34 27  1  0
  7 18  1  0
  7 19  1  0
  2  5  1  0
 20 23  1  0
 28 36  1  0
 33 37  1  0
M  END
> <minimizedAffinity>
-10.33728

> <CNNscore>
0.7645224929

> <CNNaffinity>
7.1543154716

> <CNN_VS>
5.4696350098

> <CNNaffinity_variance>
0.0979337692

$$$$



 44 48  0  0  0  0  0  0  0  0999 V2000
  -25.9921  -55.0101  -14.1491 C   0  0  0  0  0  0  0  0  0  0  0  0
  -24.3957  -53.3351  -13.3096 N   0  0  0  0  0  0  0  0  0  0  0  0
  -25.6909  -53.7982  -13.2472 C   0  0  0  0  0  0  0  0  0  0  0  0
  -26.5448  -53.2860  -12.5235 O   0  0  0  0  0  0  0  0  0  0  0  0
  -23.7577  -53.7529  -13.9323 H   0  0  0  0  0  0  0  0  0  0  0  0
  -23.9644  -52.2417  -12.4696 C   0  0  0  0  0  0  0  0  0  0  0  0
  -19.4738  -47.4966  -11.7343 N   0  0  0  0  0  0  0  0  0  0  0  0
  -20.2694  -48.6284  -11.8860 C   0  0  0  0  0  0  0  0  0  0  0  0
  -21.6449  -48.5195  -11.9352 C   0  0  0  0  0  0  0  0  0  0  0  0
  -22.3982  -49.6760  -12.1120 C   0  0  0  0  0  0  0  0  0  0  0  0
  -21.7659  -50.9273  -12.2458 C   0  0  0  0  0  0  0  0  0  0  0  0
  -22.4590  -52.1593  -12.4299 C   0  0  0  0  0  0  0  0  0  0  0  0
  -21.7272  -53.3528  -12.5331 C   0  0  0  0  0  0  0  0  0  0  0  0
  -20.3398  -53.3330  -12.4766 C   0  0  0  0  0  0  0  0  0  0  0  0
  -19.6727  -52.1208  -12.3064 C   0  0  0  0  0  0  0  0  0  0  0  0
  -20.3535  -50.9191  -12.1866 C   0  0  0  0  0  0  0  0  0  0  0  0
  -19.6295  -49.7996  -12.0119 N   0  0  0  0  0  0  0  0  0  0  0  0
  -19.8917  -46.6105  -11.6376 H   0  0  0  0  0  0  0  0  0  0  0  0
  -18.4931  -47.5822  -11.7236 H   0  0  0  0  0  0  0  0  0  0  0  0
  -27.4193  -55.3001  -14.0575 N   0  0  0  0  0  0  0  0  0  0  0  0
  -27.8979  -56.5011  -13.6034 C   0  0  0  0  0  0  0  0  0  0  0  0
  -27.1729  -57.3962  -13.1834 O   0  0  0  0  0  0  0  0  0  0  0  0
  -28.0623  -54.6071  -14.3323 H   0  0  0  0  0  0  0  0  0  0  0  0
  -29.3745  -56.6837  -13.6257 C   0  0  0  0  0  0  0  0  0  0  0  0
  -30.1792  -56.1046  -14.6139 C   0  0  0  0  0  0  0  0  0  0  0  0
  -31.5601  -56.3038  -14.5902 C   0  0  0  0  0  0  0  0  0  0  0  0
  -32.1288  -57.0978  -13.5921 C   0  0  0  0  0  0  0  0  0  0  0  0
  -33.5197  -57.2583  -13.5625 N   0  0  0  0  0  0  0  0  0  0  0  0
  -34.1792  -57.9871  -12.6124 C   0  0  0  0  0  0  0  0  0  0  0  0
  -35.4010  -58.0858  -12.5986 O   0  0  0  0  0  0  0  0  0  0  0  0
  -33.3470  -58.6716  -11.6020 C   0  0  0  0  0  0  0  0  0  0  0  0
  -32.0141  -58.5646  -11.6117 C   0  0  0  0  0  0  0  0  0  0  0  0
  -31.2661  -59.2664  -10.6887 O   0  0  0  0  0  0  0  0  0  0  0  0
  -31.3345  -57.7232  -12.6145 C   0  0  0  0  0  0  0  0  0  0  0  0
  -29.9526  -57.4940  -12.6348 C   0  0  0  0  0  0  0  0  0  0  0  0
  -34.0526  -56.8216  -14.2657 H   0  0  0  0  0  0  0  0  0  0  0  0
  -31.6933  -59.8023  -10.0497 H   0  0  0  0  0  0  0  0  0  0  0  0
  -25.5109  -54.7948  -15.5964 C   0  0  0  0  0  0  0  0  0  0  0  0
  -26.3108  -55.5378  -16.6451 C   0  0  0  0  0  0  0  0  0  0  0  0
  -27.1626  -54.8354  -17.5102 C   0  0  0  0  0  0  0  0  0  0  0  0
  -27.8885  -55.5093  -18.4928 C   0  0  0  0  0  0  0  0  0  0  0  0
  -27.7711  -56.8914  -18.6211 C   0  0  0  0  0  0  0  0  0  0  0  0
  -26.9302  -57.6003  -17.7652 C   0  0  0  0  0  0  0  0  0  0  0  0
  -26.2044  -56.9283  -16.7803 C   0  0  0  0  0  0  0  0  0  0  0  0
  7  8  1  0
  8  9  2  0
  9 10  1  0
 10 11  2  0
 11 12  1  0
 12  6  1  0
  6  2  1  0
  2  3  1  0
  3  4  2  0
  3  1  1  0
  1 38  1  0
 38 39  1  0
 39 40  2  0
 40 41  1  0
 41 42  2  0
 42 43  1  0
 43 44  2  0
  1 20  1  0
 20 21  1  0
 21 22  2  0
 21 24  1  0
 24 25  2  0
 25 26  1  0
 26 27  2  0
 27 28  1  0
 28 29  1  0
 29 30  2  0
 29 31  1  0
 31 32  2  0
 32 33  1  0
 32 34  1  0
 34 35  2  0
 12 13  2  0
 13 14  1  0
 14 15  2  0
 15 16  1  0
 16 17  2  0
 17  8  1  0
 16 11  1  0
 44 39  1  0
 35 24  1  0
 34 27  1  0
  7 18  1  0
  7 19  1  0
  2  5  1  0
 20 23  1  0
 28 36  1  0
 33 37  1  0
M  END
> <minimizedAffinity>
-9.22253

> <CNNscore>
0.6175320745

> <CNNaffinity>
7.0798830986

> <CNN_VS>
4.3720550537

> <CNNaffinity_variance>
0.0165356249

$$$$



 44 48  0  0  0  0  0  0  0  0999 V2000
  -25.5522  -55.2219  -12.5803 C   0  0  0  0  0  0  0  0  0  0  0  0
  -23.8821  -53.5374  -11.9229 N   0  0  0  0  0  0  0  0  0  0  0  0
  -25.1793  -53.7477  -12.3342 C   0  0  0  0  0  0  0  0  0  0  0  0
  -25.9832  -52.8288  -12.4909 O   0  0  0  0  0  0  0  0  0  0  0  0
  -23.2642  -54.3001  -11.8487 H   0  0  0  0  0  0  0  0  0  0  0  0
  -23.4198  -52.2075  -11.5994 C   0  0  0  0  0  0  0  0  0  0  0  0
  -18.9460  -47.3925  -11.4452 N   0  0  0  0  0  0  0  0  0  0  0  0
  -19.7376  -48.5356  -11.5048 C   0  0  0  0  0  0  0  0  0  0  0  0
  -21.1033  -48.4557  -11.3186 C   0  0  0  0  0  0  0  0  0  0  0  0
  -21.8570  -49.6218  -11.4110 C   0  0  0  0  0  0  0  0  0  0  0  0
  -21.2363  -50.8531  -11.6968 C   0  0  0  0  0  0  0  0  0  0  0  0
  -21.9306  -52.0930  -11.8094 C   0  0  0  0  0  0  0  0  0  0  0  0
  -21.2076  -53.2656  -12.0795 C   0  0  0  0  0  0  0  0  0  0  0  0
  -19.8311  -53.2170  -12.2557 C   0  0  0  0  0  0  0  0  0  0  0  0
  -19.1643  -51.9970  -12.1532 C   0  0  0  0  0  0  0  0  0  0  0  0
  -19.8343  -50.8156  -11.8749 C   0  0  0  0  0  0  0  0  0  0  0  0
  -19.1093  -49.6871  -11.7811 N   0  0  0  0  0  0  0  0  0  0  0  0
  -19.3558  -46.5198  -11.2459 H   0  0  0  0  0  0  0  0  0  0  0  0
  -17.9763  -47.4565  -11.6024 H   0  0  0  0  0  0  0  0  0  0  0  0
  -26.3623  -55.6786  -11.4557 N   0  0  0  0  0  0  0  0  0  0  0  0
  -27.7229  -55.5205  -11.4176 C   0  0  0  0  0  0  0  0  0  0  0  0
  -28.3687  -55.0431  -12.3440 O   0  0  0  0  0  0  0  0  0  0  0  0
  -25.9146  -56.1166  -10.6961 H   0  0  0  0  0  0  0  0  0  0  0  0
  -28.4140  -55.9733  -10.1800 C   0  0  0  0  0  0  0  0  0  0  0  0
  -29.7980  -55.8457  -10.0137 C   0  0  0  0  0  0  0  0  0  0  0  0
  -30.3991  -56.2838   -8.8331 C   0  0  0  0  0  0  0  0  0  0  0  0
  -29.6184  -56.8668   -7.8327 C   0  0  0  0  0  0  0  0  0  0  0  0
  -30.2325  -57.2687   -6.6400 N   0  0  0  0  0  0  0  0  0  0  0  0
  -29.5570  -57.8201   -5.5872 C   0  0  0  0  0  0  0  0  0  0  0  0
  -30.1202  -58.1366   -4.5454 O   0  0  0  0  0  0  0  0  0  0  0  0
  -28.1068  -58.0361   -5.7666 C   0  0  0  0  0  0  0  0  0  0  0  0
  -27.4878  -57.6901   -6.9003 C   0  0  0  0  0  0  0  0  0  0  0  0
  -26.1439  -57.9619   -7.0548 O   0  0  0  0  0  0  0  0  0  0  0  0
  -28.2328  -57.0430   -7.9966 C   0  0  0  0  0  0  0  0  0  0  0  0
  -27.6383  -56.5754   -9.1757 C   0  0  0  0  0  0  0  0  0  0  0  0
  -31.2058  -57.1473   -6.5550 H   0  0  0  0  0  0  0  0  0  0  0  0
  -25.6663  -58.3728   -6.3613 H   0  0  0  0  0  0  0  0  0  0  0  0
  -26.2382  -55.4309  -13.9435 C   0  0  0  0  0  0  0  0  0  0  0  0
  -25.4119  -55.0052  -15.1383 C   0  0  0  0  0  0  0  0  0  0  0  0
  -24.1040  -55.4859  -15.2978 C   0  0  0  0  0  0  0  0  0  0  0  0
  -23.3421  -55.1147  -16.4061 C   0  0  0  0  0  0  0  0  0  0  0  0
  -23.8788  -54.2598  -17.3661 C   0  0  0  0  0  0  0  0  0  0  0  0
  -25.1762  -53.7734  -17.2166 C   0  0  0  0  0  0  0  0  0  0  0  0
  -25.9395  -54.1420  -16.1076 C   0  0  0  0  0  0  0  0  0  0  0  0
  7  8  1  0
  8  9  2  0
  9 10  1  0
 10 11  2  0
 11 12  1  0
 12  6  1  0
  6  2  1  0
  2  3  1  0
  3  4  2  0
  3  1  1  0
  1 38  1  0
 38 39  1  0
 39 40  2  0
 40 41  1  0
 41 42  2  0
 42 43  1  0
 43 44  2  0
  1 20  1  0
 20 21  1  0
 21 22  2  0
 21 24  1  0
 24 25  2  0
 25 26  1  0
 26 27  2  0
 27 28  1  0
 28 29  1  0
 29 30  2  0
 29 31  1  0
 31 32  2  0
 32 33  1  0
 32 34  1  0
 34 35  2  0
 12 13  2  0
 13 14  1  0
 14 15  2  0
 15 16  1  0
 16 17  2  0
 17  8  1  0
 16 11  1  0
 44 39  1  0
 35 24  1  0
 34 27  1  0
  7 18  1  0
  7 19  1  0
  2  5  1  0
 20 23  1  0
 28 36  1  0
 33 37  1  0
M  END
> <minimizedAffinity>
-9.32728

> <CNNscore>
0.5351319313

> <CNNaffinity>
7.0002350807

> <CNN_VS>
3.7460494041

> <CNNaffinity_variance>
0.0080305273

$$$$



 44 48  0  0  0  0  0  0  0  0999 V2000
  -26.2063  -54.4258  -11.6191 C   0  0  0  0  0  0  0  0  0  0  0  0
  -24.4051  -52.7627  -11.8394 N   0  0  0  0  0  0  0  0  0  0  0  0
  -25.5980  -53.0672  -11.2228 C   0  0  0  0  0  0  0  0  0  0  0  0
  -26.1379  -52.3136  -10.4130 O   0  0  0  0  0  0  0  0  0  0  0  0
  -24.0309  -53.3795  -12.5094 H   0  0  0  0  0  0  0  0  0  0  0  0
  -23.6976  -51.5464  -11.5122 C   0  0  0  0  0  0  0  0  0  0  0  0
  -18.4206  -47.6255  -11.5469 N   0  0  0  0  0  0  0  0  0  0  0  0
  -19.4078  -48.6063  -11.5647 C   0  0  0  0  0  0  0  0  0  0  0  0
  -20.7329  -48.2738  -11.3657 C   0  0  0  0  0  0  0  0  0  0  0  0
  -21.6876  -49.2849  -11.4159 C   0  0  0  0  0  0  0  0  0  0  0  0
  -21.3060  -50.6159  -11.6730 C   0  0  0  0  0  0  0  0  0  0  0  0
  -22.2161  -51.7110  -11.7420 C   0  0  0  0  0  0  0  0  0  0  0  0
  -21.7230  -53.0024  -11.9863 C   0  0  0  0  0  0  0  0  0  0  0  0
  -20.3636  -53.2102  -12.1790 C   0  0  0  0  0  0  0  0  0  0  0  0
  -19.4844  -52.1300  -12.1193 C   0  0  0  0  0  0  0  0  0  0  0  0
  -19.9237  -50.8393  -11.8677 C   0  0  0  0  0  0  0  0  0  0  0  0
  -19.0040  -49.8599  -11.8147 N   0  0  0  0  0  0  0  0  0  0  0  0
  -18.6614  -46.6878  -11.3683 H   0  0  0  0  0  0  0  0  0  0  0  0
  -17.4813  -47.8694  -11.7130 H   0  0  0  0  0  0  0  0  0  0  0  0
  -25.8635  -54.6869  -13.0133 N   0  0  0  0  0  0  0  0  0  0  0  0
  -26.8145  -54.8845  -13.9797 C   0  0  0  0  0  0  0  0  0  0  0  0
  -28.0182  -54.7969  -13.7638 O   0  0  0  0  0  0  0  0  0  0  0  0
  -24.9134  -54.7223  -13.2691 H   0  0  0  0  0  0  0  0  0  0  0  0
  -26.3219  -55.2067  -15.3464 C   0  0  0  0  0  0  0  0  0  0  0  0
  -25.0466  -55.7390  -15.5694 C   0  0  0  0  0  0  0  0  0  0  0  0
  -24.6299  -56.0225  -16.8706 C   0  0  0  0  0  0  0  0  0  0  0  0
  -25.4965  -55.7929  -17.9413 C   0  0  0  0  0  0  0  0  0  0  0  0
  -25.0495  -56.0496  -19.2434 N   0  0  0  0  0  0  0  0  0  0  0  0
  -25.8044  -55.8303  -20.3618 C   0  0  0  0  0  0  0  0  0  0  0  0
  -25.3738  -56.0399  -21.4902 O   0  0  0  0  0  0  0  0  0  0  0  0
  -27.1818  -55.3406  -20.1495 C   0  0  0  0  0  0  0  0  0  0  0  0
  -27.6549  -55.1082  -18.9205 C   0  0  0  0  0  0  0  0  0  0  0  0
  -28.9656  -54.7088  -18.7578 O   0  0  0  0  0  0  0  0  0  0  0  0
  -26.7968  -55.2983  -17.7360 C   0  0  0  0  0  0  0  0  0  0  0  0
  -27.1931  -54.9938  -16.4273 C   0  0  0  0  0  0  0  0  0  0  0  0
  -24.1401  -56.4084  -19.3600 H   0  0  0  0  0  0  0  0  0  0  0  0
  -29.5146  -54.5867  -19.5072 H   0  0  0  0  0  0  0  0  0  0  0  0
  -25.7748  -55.5584  -10.6685 C   0  0  0  0  0  0  0  0  0  0  0  0
  -26.5709  -55.6422   -9.3836 C   0  0  0  0  0  0  0  0  0  0  0  0
  -27.8984  -55.1911   -9.3465 C   0  0  0  0  0  0  0  0  0  0  0  0
  -28.6462  -55.2828   -8.1721 C   0  0  0  0  0  0  0  0  0  0  0  0
  -28.0755  -55.8258   -7.0232 C   0  0  0  0  0  0  0  0  0  0  0  0
  -26.7564  -56.2745   -7.0473 C   0  0  0  0  0  0  0  0  0  0  0  0
  -26.0059  -56.1820   -8.2206 C   0  0  0  0  0  0  0  0  0  0  0  0
  7  8  1  0
  8  9  2  0
  9 10  1  0
 10 11  2  0
 11 12  1  0
 12  6  1  0
  6  2  1  0
  2  3  1  0
  3  4  2  0
  3  1  1  0
  1 38  1  0
 38 39  1  0
 39 40  2  0
 40 41  1  0
 41 42  2  0
 42 43  1  0
 43 44  2  0
  1 20  1  0
 20 21  1  0
 21 22  2  0
 21 24  1  0
 24 25  2  0
 25 26  1  0
 26 27  2  0
 27 28  1  0
 28 29  1  0
 29 30  2  0
 29 31  1  0
 31 32  2  0
 32 33  1  0
 32 34  1  0
 34 35  2  0
 12 13  2  0
 13 14  1  0
 14 15  2  0
 15 16  1  0
 16 17  2  0
 17  8  1  0
 16 11  1  0
 44 39  1  0
 35 24  1  0
 34 27  1  0
  7 18  1  0
  7 19  1  0
  2  5  1  0
 20 23  1  0
 28 36  1  0
 33 37  1  0
M  END
> <minimizedAffinity>
-10.42875

> <CNNscore>
0.4936361909

> <CNNaffinity>
6.8832001686

> <CNN_VS>
3.3977966309

> <CNNaffinity_variance>
0.2716623247

$$$$



 44 48  0  0  0  0  0  0  0  0999 V2000
  -28.9135  -56.4653   -7.9906 C   0  0  0  0  0  0  0  0  0  0  0  0
  -28.5903  -54.5411   -9.4912 N   0  0  0  0  0  0  0  0  0  0  0  0
  -27.9813  -55.4078   -8.6115 C   0  0  0  0  0  0  0  0  0  0  0  0
  -26.7816  -55.3463   -8.3425 O   0  0  0  0  0  0  0  0  0  0  0  0
  -29.5606  -54.6047   -9.6456 H   0  0  0  0  0  0  0  0  0  0  0  0
  -27.8185  -53.5394  -10.1896 C   0  0  0  0  0  0  0  0  0  0  0  0
  -22.6023  -54.1031  -14.1515 N   0  0  0  0  0  0  0  0  0  0  0  0
  -23.8116  -54.0638  -13.4637 C   0  0  0  0  0  0  0  0  0  0  0  0
  -23.8631  -53.6220  -12.1567 C   0  0  0  0  0  0  0  0  0  0  0  0
  -25.0983  -53.5777  -11.5173 C   0  0  0  0  0  0  0  0  0  0  0  0
  -26.2688  -53.9683  -12.1961 C   0  0  0  0  0  0  0  0  0  0  0  0
  -27.5720  -53.9541  -11.6186 C   0  0  0  0  0  0  0  0  0  0  0  0
  -28.6688  -54.3835  -12.3824 C   0  0  0  0  0  0  0  0  0  0  0  0
  -28.4905  -54.7996  -13.6952 C   0  0  0  0  0  0  0  0  0  0  0  0
  -27.2126  -54.7995  -14.2523 C   0  0  0  0  0  0  0  0  0  0  0  0
  -26.0983  -54.3968  -13.5324 C   0  0  0  0  0  0  0  0  0  0  0  0
  -24.9023  -54.4416  -14.1454 N   0  0  0  0  0  0  0  0  0  0  0  0
  -21.7697  -53.8362  -13.6989 H   0  0  0  0  0  0  0  0  0  0  0  0
  -22.5794  -54.3977  -15.0906 H   0  0  0  0  0  0  0  0  0  0  0  0
  -29.9040  -56.8419   -8.9939 N   0  0  0  0  0  0  0  0  0  0  0  0
  -29.5783  -57.5571  -10.1164 C   0  0  0  0  0  0  0  0  0  0  0  0
  -28.4509  -57.9867  -10.3340 O   0  0  0  0  0  0  0  0  0  0  0  0
  -30.8412  -56.5720   -8.8592 H   0  0  0  0  0  0  0  0  0  0  0  0
  -30.6763  -57.8139  -11.0873 C   0  0  0  0  0  0  0  0  0  0  0  0
  -30.5420  -57.5312  -12.4517 C   0  0  0  0  0  0  0  0  0  0  0  0
  -31.6020  -57.7881  -13.3220 C   0  0  0  0  0  0  0  0  0  0  0  0
  -32.7837  -58.3459  -12.8294 C   0  0  0  0  0  0  0  0  0  0  0  0
  -33.8501  -58.5644  -13.7104 N   0  0  0  0  0  0  0  0  0  0  0  0
  -35.0587  -59.0751  -13.3268 C   0  0  0  0  0  0  0  0  0  0  0  0
  -35.9821  -59.2290  -14.1183 O   0  0  0  0  0  0  0  0  0  0  0  0
  -35.2007  -59.4532  -11.9059 C   0  0  0  0  0  0  0  0  0  0  0  0
  -34.1971  -59.2847  -11.0384 C   0  0  0  0  0  0  0  0  0  0  0  0
  -34.3456  -59.7049   -9.7326 O   0  0  0  0  0  0  0  0  0  0  0  0
  -32.9245  -58.6765  -11.4698 C   0  0  0  0  0  0  0  0  0  0  0  0
  -31.8623  -58.3896  -10.6026 C   0  0  0  0  0  0  0  0  0  0  0  0
  -33.7221  -58.3374  -14.6598 H   0  0  0  0  0  0  0  0  0  0  0  0
  -35.1522  -60.0919   -9.4538 H   0  0  0  0  0  0  0  0  0  0  0  0
  -28.1364  -57.6699   -7.4269 C   0  0  0  0  0  0  0  0  0  0  0  0
  -28.4935  -58.0417   -6.0035 C   0  0  0  0  0  0  0  0  0  0  0  0
  -27.4865  -58.3990   -5.0948 C   0  0  0  0  0  0  0  0  0  0  0  0
  -27.8042  -58.7239   -3.7756 C   0  0  0  0  0  0  0  0  0  0  0  0
  -29.1306  -58.6953   -3.3510 C   0  0  0  0  0  0  0  0  0  0  0  0
  -30.1399  -58.3448   -4.2457 C   0  0  0  0  0  0  0  0  0  0  0  0
  -29.8245  -58.0212   -5.5664 C   0  0  0  0  0  0  0  0  0  0  0  0
  7  8  1  0
  8  9  2  0
  9 10  1  0
 10 11  2  0
 11 12  1  0
 12  6  1  0
  6  2  1  0
  2  3  1  0
  3  4  2  0
  3  1  1  0
  1 38  1  0
 38 39  1  0
 39 40  2  0
 40 41  1  0
 41 42  2  0
 42 43  1  0
 43 44  2  0
  1 20  1  0
 20 21  1  0
 21 22  2  0
 21 24  1  0
 24 25  2  0
 25 26  1  0
 26 27  2  0
 27 28  1  0
 28 29  1  0
 29 30  2  0
 29 31  1  0
 31 32  2  0
 32 33  1  0
 32 34  1  0
 34 35  2  0
 12 13  2  0
 13 14  1  0
 14 15  2  0
 15 16  1  0
 16 17  2  0
 17  8  1  0
 16 11  1  0
 44 39  1  0
 35 24  1  0
 34 27  1  0
  7 18  1  0
  7 19  1  0
  2  5  1  0
 20 23  1  0
 28 36  1  0
 33 37  1  0
M  END
> <minimizedAffinity>
-8.14756

> <CNNscore>
0.4725434780

> <CNNaffinity>
6.7207736969

> <CNN_VS>
3.1758577824

> <CNNaffinity_variance>
0.0236079562

$$$$



 44 48  0  0  0  0  0  0  0  0999 V2000
  -26.0522  -54.5209  -11.6572 C   0  0  0  0  0  0  0  0  0  0  0  0
  -24.2951  -52.7992  -11.7424 N   0  0  0  0  0  0  0  0  0  0  0  0
  -25.5212  -53.1430  -11.2185 C   0  0  0  0  0  0  0  0  0  0  0  0
  -26.1463  -52.4078  -10.4544 O   0  0  0  0  0  0  0  0  0  0  0  0
  -23.8504  -53.4032  -12.3801 H   0  0  0  0  0  0  0  0  0  0  0  0
  -23.6553  -51.5602  -11.3647 C   0  0  0  0  0  0  0  0  0  0  0  0
  -18.6786  -47.2896  -11.8291 N   0  0  0  0  0  0  0  0  0  0  0  0
  -19.5915  -48.3363  -11.7410 C   0  0  0  0  0  0  0  0  0  0  0  0
  -20.9378  -48.0826  -11.5705 C   0  0  0  0  0  0  0  0  0  0  0  0
  -21.8160  -49.1604  -11.5116 C   0  0  0  0  0  0  0  0  0  0  0  0
  -21.3377  -50.4794  -11.6324 C   0  0  0  0  0  0  0  0  0  0  0  0
  -22.1652  -51.6391  -11.5839 C   0  0  0  0  0  0  0  0  0  0  0  0
  -21.5785  -52.9095  -11.6965 C   0  0  0  0  0  0  0  0  0  0  0  0
  -20.2071  -53.0364  -11.8738 C   0  0  0  0  0  0  0  0  0  0  0  0
  -19.4093  -51.8946  -11.9299 C   0  0  0  0  0  0  0  0  0  0  0  0
  -19.9422  -50.6203  -11.8102 C   0  0  0  0  0  0  0  0  0  0  0  0
  -19.0967  -49.5762  -11.8627 N   0  0  0  0  0  0  0  0  0  0  0  0
  -18.9877  -46.3585  -11.7467 H   0  0  0  0  0  0  0  0  0  0  0  0
  -17.7236  -47.4802  -11.9740 H   0  0  0  0  0  0  0  0  0  0  0  0
  -25.5747  -54.7808  -13.0114 N   0  0  0  0  0  0  0  0  0  0  0  0
  -24.3364  -55.3096  -13.2656 C   0  0  0  0  0  0  0  0  0  0  0  0
  -23.5630  -55.6608  -12.3816 O   0  0  0  0  0  0  0  0  0  0  0  0
  -26.1642  -54.5683  -13.7707 H   0  0  0  0  0  0  0  0  0  0  0  0
  -23.9546  -55.4599  -14.6959 C   0  0  0  0  0  0  0  0  0  0  0  0
  -24.8883  -55.3319  -15.7309 C   0  0  0  0  0  0  0  0  0  0  0  0
  -24.4810  -55.4839  -17.0569 C   0  0  0  0  0  0  0  0  0  0  0  0
  -23.1390  -55.7420  -17.3443 C   0  0  0  0  0  0  0  0  0  0  0  0
  -22.7538  -55.9267  -18.6780 N   0  0  0  0  0  0  0  0  0  0  0  0
  -21.4749  -56.2144  -19.0654 C   0  0  0  0  0  0  0  0  0  0  0  0
  -21.1752  -56.3975  -20.2399 O   0  0  0  0  0  0  0  0  0  0  0  0
  -20.4551  -56.2797  -17.9988 C   0  0  0  0  0  0  0  0  0  0  0  0
  -20.7778  -56.0832  -16.7160 C   0  0  0  0  0  0  0  0  0  0  0  0
  -19.7886  -56.0923  -15.7541 O   0  0  0  0  0  0  0  0  0  0  0  0
  -22.1770  -55.8327  -16.3225 C   0  0  0  0  0  0  0  0  0  0  0  0
  -22.6040  -55.7036  -14.9946 C   0  0  0  0  0  0  0  0  0  0  0  0
  -23.4432  -55.8448  -19.3761 H   0  0  0  0  0  0  0  0  0  0  0  0
  -18.8983  -56.2510  -15.9991 H   0  0  0  0  0  0  0  0  0  0  0  0
  -25.6790  -55.6347  -10.6608 C   0  0  0  0  0  0  0  0  0  0  0  0
  -26.5407  -55.6843   -9.4171 C   0  0  0  0  0  0  0  0  0  0  0  0
  -25.9810  -56.0577   -8.1865 C   0  0  0  0  0  0  0  0  0  0  0  0
  -26.7629  -56.0870   -7.0313 C   0  0  0  0  0  0  0  0  0  0  0  0
  -28.1115  -55.7438   -7.0937 C   0  0  0  0  0  0  0  0  0  0  0  0
  -28.6794  -55.3741   -8.3115 C   0  0  0  0  0  0  0  0  0  0  0  0
  -27.8994  -55.3459   -9.4688 C   0  0  0  0  0  0  0  0  0  0  0  0
  7  8  1  0
  8  9  2  0
  9 10  1  0
 10 11  2  0
 11 12  1  0
 12  6  1  0
  6  2  1  0
  2  3  1  0
  3  4  2  0
  3  1  1  0
  1 38  1  0
 38 39  1  0
 39 40  2  0
 40 41  1  0
 41 42  2  0
 42 43  1  0
 43 44  2  0
  1 20  1  0
 20 21  1  0
 21 22  2  0
 21 24  1  0
 24 25  2  0
 25 26  1  0
 26 27  2  0
 27 28  1  0
 28 29  1  0
 29 30  2  0
 29 31  1  0
 31 32  2  0
 32 33  1  0
 32 34  1  0
 34 35  2  0
 12 13  2  0
 13 14  1  0
 14 15  2  0
 15 16  1  0
 16 17  2  0
 17  8  1  0
 16 11  1  0
 44 39  1  0
 35 24  1  0
 34 27  1  0
  7 18  1  0
  7 19  1  0
  2  5  1  0
 20 23  1  0
 28 36  1  0
 33 37  1  0
M  END
> <minimizedAffinity>
-9.33054

> <CNNscore>
0.4664020538

> <CNNaffinity>
6.9492149353

> <CNN_VS>
3.2411282063

> <CNNaffinity_variance>
0.2172255367

$$$$



 44 48  0  0  0  0  0  0  0  0999 V2000
  -26.2493  -54.2887  -11.4655 C   0  0  0  0  0  0  0  0  0  0  0  0
  -25.0873  -52.7132  -12.9576 N   0  0  0  0  0  0  0  0  0  0  0  0
  -25.4709  -52.9739  -11.6611 C   0  0  0  0  0  0  0  0  0  0  0  0
  -25.2097  -52.2165  -10.7265 O   0  0  0  0  0  0  0  0  0  0  0  0
  -25.3526  -53.3294  -13.6781 H   0  0  0  0  0  0  0  0  0  0  0  0
  -24.2992  -51.5435  -13.2701 C   0  0  0  0  0  0  0  0  0  0  0  0
  -18.5722  -49.1633  -11.0886 N   0  0  0  0  0  0  0  0  0  0  0  0
  -19.6762  -49.8173  -11.6276 C   0  0  0  0  0  0  0  0  0  0  0  0
  -20.9514  -49.3289  -11.4239 C   0  0  0  0  0  0  0  0  0  0  0  0
  -22.0225  -50.0030  -12.0023 C   0  0  0  0  0  0  0  0  0  0  0  0
  -21.8045  -51.1534  -12.7847 C   0  0  0  0  0  0  0  0  0  0  0  0
  -22.8414  -51.9032  -13.4128 C   0  0  0  0  0  0  0  0  0  0  0  0
  -22.5111  -53.0473  -14.1562 C   0  0  0  0  0  0  0  0  0  0  0  0
  -21.1851  -53.4352  -14.2961 C   0  0  0  0  0  0  0  0  0  0  0  0
  -20.1788  -52.6881  -13.6856 C   0  0  0  0  0  0  0  0  0  0  0  0
  -20.4581  -51.5590  -12.9312 C   0  0  0  0  0  0  0  0  0  0  0  0
  -19.4262  -50.9068  -12.3674 N   0  0  0  0  0  0  0  0  0  0  0  0
  -18.6982  -48.3576  -10.5370 H   0  0  0  0  0  0  0  0  0  0  0  0
  -17.6653  -49.5064  -11.2589 H   0  0  0  0  0  0  0  0  0  0  0  0
  -26.3197  -54.9701  -12.7540 N   0  0  0  0  0  0  0  0  0  0  0  0
  -27.4942  -55.1184  -13.4440 C   0  0  0  0  0  0  0  0  0  0  0  0
  -28.5585  -54.6406  -13.0668 O   0  0  0  0  0  0  0  0  0  0  0  0
  -25.4926  -55.3368  -13.1420 H   0  0  0  0  0  0  0  0  0  0  0  0
  -27.4306  -55.8924  -14.7133 C   0  0  0  0  0  0  0  0  0  0  0  0
  -28.4070  -55.7676  -15.7086 C   0  0  0  0  0  0  0  0  0  0  0  0
  -28.3037  -56.5172  -16.8810 C   0  0  0  0  0  0  0  0  0  0  0  0
  -27.2147  -57.3722  -17.0633 C   0  0  0  0  0  0  0  0  0  0  0  0
  -27.1450  -58.1434  -18.2301 N   0  0  0  0  0  0  0  0  0  0  0  0
  -26.1408  -59.0328  -18.4928 C   0  0  0  0  0  0  0  0  0  0  0  0
  -26.1230  -59.7135  -19.5122 O   0  0  0  0  0  0  0  0  0  0  0  0
  -25.0574  -59.1278  -17.4931 C   0  0  0  0  0  0  0  0  0  0  0  0
  -25.0738  -58.3892  -16.3785 C   0  0  0  0  0  0  0  0  0  0  0  0
  -24.0150  -58.4604  -15.4967 O   0  0  0  0  0  0  0  0  0  0  0  0
  -26.2009  -57.4811  -16.0947 C   0  0  0  0  0  0  0  0  0  0  0  0
  -26.3302  -56.7424  -14.9115 C   0  0  0  0  0  0  0  0  0  0  0  0
  -27.8598  -58.0392  -18.8991 H   0  0  0  0  0  0  0  0  0  0  0  0
  -23.2966  -59.0357  -15.6726 H   0  0  0  0  0  0  0  0  0  0  0  0
  -25.6458  -55.1643  -10.3512 C   0  0  0  0  0  0  0  0  0  0  0  0
  -26.5843  -55.4575   -9.2001 C   0  0  0  0  0  0  0  0  0  0  0  0
  -27.9441  -55.1281   -9.2983 C   0  0  0  0  0  0  0  0  0  0  0  0
  -28.8204  -55.4127   -8.2504 C   0  0  0  0  0  0  0  0  0  0  0  0
  -28.3472  -56.0289   -7.0942 C   0  0  0  0  0  0  0  0  0  0  0  0
  -26.9975  -56.3580   -6.9841 C   0  0  0  0  0  0  0  0  0  0  0  0
  -26.1188  -56.0726   -8.0305 C   0  0  0  0  0  0  0  0  0  0  0  0
  7  8  1  0
  8  9  2  0
  9 10  1  0
 10 11  2  0
 11 12  1  0
 12  6  1  0
  6  2  1  0
  2  3  1  0
  3  4  2  0
  3  1  1  0
  1 38  1  0
 38 39  1  0
 39 40  2  0
 40 41  1  0
 41 42  2  0
 42 43  1  0
 43 44  2  0
  1 20  1  0
 20 21  1  0
 21 22  2  0
 21 24  1  0
 24 25  2  0
 25 26  1  0
 26 27  2  0
 27 28  1  0
 28 29  1  0
 29 30  2  0
 29 31  1  0
 31 32  2  0
 32 33  1  0
 32 34  1  0
 34 35  2  0
 12 13  2  0
 13 14  1  0
 14 15  2  0
 15 16  1  0
 16 17  2  0
 17  8  1  0
 16 11  1  0
 44 39  1  0
 35 24  1  0
 34 27  1  0
  7 18  1  0
  7 19  1  0
  2  5  1  0
 20 23  1  0
 28 36  1  0
 33 37  1  0
M  END
> <minimizedAffinity>
-8.88422

> <CNNscore>
0.4067249596

> <CNNaffinity>
6.7355723381

> <CNN_VS>
2.7395253181

> <CNNaffinity_variance>
0.0546794124

$$$$



 44 48  0  0  0  0  0  0  0  0999 V2000
  -25.3784  -54.5579  -13.7192 C   0  0  0  0  0  0  0  0  0  0  0  0
  -24.0509  -53.4150  -11.9898 N   0  0  0  0  0  0  0  0  0  0  0  0
  -24.6828  -53.2828  -13.2060 C   0  0  0  0  0  0  0  0  0  0  0  0
  -24.6952  -52.2254  -13.8360 O   0  0  0  0  0  0  0  0  0  0  0  0
  -24.0349  -54.2912  -11.5411 H   0  0  0  0  0  0  0  0  0  0  0  0
  -23.4111  -52.2797  -11.3662 C   0  0  0  0  0  0  0  0  0  0  0  0
  -18.6352  -47.7634  -11.4939 N   0  0  0  0  0  0  0  0  0  0  0  0
  -19.5014  -48.8527  -11.5054 C   0  0  0  0  0  0  0  0  0  0  0  0
  -20.8428  -48.6875  -11.2237 C   0  0  0  0  0  0  0  0  0  0  0  0
  -21.6750  -49.8018  -11.2708 C   0  0  0  0  0  0  0  0  0  0  0  0
  -21.1565  -51.0672  -11.6072 C   0  0  0  0  0  0  0  0  0  0  0  0
  -21.9358  -52.2587  -11.6791 C   0  0  0  0  0  0  0  0  0  0  0  0
  -21.3106  -53.4722  -12.0067 C   0  0  0  0  0  0  0  0  0  0  0  0
  -19.9493  -53.5099  -12.2783 C   0  0  0  0  0  0  0  0  0  0  0  0
  -19.1995  -52.3364  -12.2148 C   0  0  0  0  0  0  0  0  0  0  0  0
  -19.7708  -51.1176  -11.8826 C   0  0  0  0  0  0  0  0  0  0  0  0
  -18.9695  -50.0390  -11.8325 N   0  0  0  0  0  0  0  0  0  0  0  0
  -18.9729  -46.8685  -11.2607 H   0  0  0  0  0  0  0  0  0  0  0  0
  -17.6849  -47.8877  -11.7189 H   0  0  0  0  0  0  0  0  0  0  0  0
  -26.1991  -55.0933  -12.6378 N   0  0  0  0  0  0  0  0  0  0  0  0
  -27.1995  -54.3678  -12.0458 C   0  0  0  0  0  0  0  0  0  0  0  0
  -27.5224  -53.2445  -12.4159 O   0  0  0  0  0  0  0  0  0  0  0  0
  -26.0276  -56.0098  -12.3219 H   0  0  0  0  0  0  0  0  0  0  0  0
  -27.9121  -55.0144  -10.9107 C   0  0  0  0  0  0  0  0  0  0  0  0
  -29.2256  -55.4837  -11.0295 C   0  0  0  0  0  0  0  0  0  0  0  0
  -29.8515  -56.0811   -9.9347 C   0  0  0  0  0  0  0  0  0  0  0  0
  -29.1557  -56.2263   -8.7327 C   0  0  0  0  0  0  0  0  0  0  0  0
  -29.8106  -56.7960   -7.6338 N   0  0  0  0  0  0  0  0  0  0  0  0
  -29.2328  -56.9553   -6.4052 C   0  0  0  0  0  0  0  0  0  0  0  0
  -29.8426  -57.4331   -5.4551 O   0  0  0  0  0  0  0  0  0  0  0  0
  -27.8219  -56.5379   -6.2741 C   0  0  0  0  0  0  0  0  0  0  0  0
  -27.1535  -56.0138   -7.3069 C   0  0  0  0  0  0  0  0  0  0  0  0
  -25.8196  -55.6913   -7.1640 O   0  0  0  0  0  0  0  0  0  0  0  0
  -27.8217  -55.8000   -8.6044 C   0  0  0  0  0  0  0  0  0  0  0  0
  -27.2139  -55.1788   -9.7031 C   0  0  0  0  0  0  0  0  0  0  0  0
  -30.7397  -57.0990   -7.7528 H   0  0  0  0  0  0  0  0  0  0  0  0
  -25.3907  -55.8253   -6.3418 H   0  0  0  0  0  0  0  0  0  0  0  0
  -26.1735  -54.3082  -15.0145 C   0  0  0  0  0  0  0  0  0  0  0  0
  -26.7485  -55.5546  -15.6528 C   0  0  0  0  0  0  0  0  0  0  0  0
  -27.3889  -55.4772  -16.8983 C   0  0  0  0  0  0  0  0  0  0  0  0
  -27.9043  -56.6239  -17.5034 C   0  0  0  0  0  0  0  0  0  0  0  0
  -27.7852  -57.8592  -16.8707 C   0  0  0  0  0  0  0  0  0  0  0  0
  -27.1536  -57.9479  -15.6317 C   0  0  0  0  0  0  0  0  0  0  0  0
  -26.6390  -56.8017  -15.0236 C   0  0  0  0  0  0  0  0  0  0  0  0
  7  8  1  0
  8  9  2  0
  9 10  1  0
 10 11  2  0
 11 12  1  0
 12  6  1  0
  6  2  1  0
  2  3  1  0
  3  4  2  0
  3  1  1  0
  1 38  1  0
 38 39  1  0
 39 40  2  0
 40 41  1  0
 41 42  2  0
 42 43  1  0
 43 44  2  0
  1 20  1  0
 20 21  1  0
 21 22  2  0
 21 24  1  0
 24 25  2  0
 25 26  1  0
 26 27  2  0
 27 28  1  0
 28 29  1  0
 29 30  2  0
 29 31  1  0
 31 32  2  0
 32 33  1  0
 32 34  1  0
 34 35  2  0
 12 13  2  0
 13 14  1  0
 14 15  2  0
 15 16  1  0
 16 17  2  0
 17  8  1  0
 16 11  1  0
 44 39  1  0
 35 24  1  0
 34 27  1  0
  7 18  1  0
  7 19  1  0
  2  5  1  0
 20 23  1  0
 28 36  1  0
 33 37  1  0
M  END
> <minimizedAffinity>
-9.60490

> <CNNscore>
0.3962934017

> <CNNaffinity>
6.7210488319

> <CNN_VS>
2.6635072231

> <CNNaffinity_variance>
0.1373549849

$$$$



 44 48  0  0  0  0  0  0  0  0999 V2000
  -19.7939  -54.3030  -16.0090 C   0  0  0  0  0  0  0  0  0  0  0  0
  -20.9430  -54.1814  -13.8355 N   0  0  0  0  0  0  0  0  0  0  0  0
  -19.7232  -54.1883  -14.4744 C   0  0  0  0  0  0  0  0  0  0  0  0
  -18.6555  -54.1056  -13.8674 O   0  0  0  0  0  0  0  0  0  0  0  0
  -21.7691  -54.2888  -14.3602 H   0  0  0  0  0  0  0  0  0  0  0  0
  -21.0214  -54.0183  -12.4023 C   0  0  0  0  0  0  0  0  0  0  0  0
  -19.1865  -47.8178  -11.2150 N   0  0  0  0  0  0  0  0  0  0  0  0
  -19.7630  -49.0623  -11.4515 C   0  0  0  0  0  0  0  0  0  0  0  0
  -18.9748  -50.1602  -11.7332 C   0  0  0  0  0  0  0  0  0  0  0  0
  -19.5944  -51.3891  -11.9390 C   0  0  0  0  0  0  0  0  0  0  0  0
  -20.9951  -51.5066  -11.8524 C   0  0  0  0  0  0  0  0  0  0  0  0
  -21.7103  -52.7241  -12.0482 C   0  0  0  0  0  0  0  0  0  0  0  0
  -23.1111  -52.7227  -11.9565 C   0  0  0  0  0  0  0  0  0  0  0  0
  -23.7942  -51.5511  -11.6582 C   0  0  0  0  0  0  0  0  0  0  0  0
  -23.0831  -50.3687  -11.4588 C   0  0  0  0  0  0  0  0  0  0  0  0
  -21.7008  -50.3190  -11.5522 C   0  0  0  0  0  0  0  0  0  0  0  0
  -21.0984  -49.1327  -11.3576 N   0  0  0  0  0  0  0  0  0  0  0  0
  -18.2096  -47.7093  -11.2707 H   0  0  0  0  0  0  0  0  0  0  0  0
  -19.7556  -47.0460  -10.9921 H   0  0  0  0  0  0  0  0  0  0  0  0
  -21.1937  -54.4663  -16.3876 N   0  0  0  0  0  0  0  0  0  0  0  0
  -22.1199  -53.4693  -16.2268 C   0  0  0  0  0  0  0  0  0  0  0  0
  -21.8359  -52.3505  -15.8137 O   0  0  0  0  0  0  0  0  0  0  0  0
  -21.4834  -55.3247  -16.7728 H   0  0  0  0  0  0  0  0  0  0  0  0
  -23.5244  -53.7962  -16.5940 C   0  0  0  0  0  0  0  0  0  0  0  0
  -24.4764  -54.1618  -15.6351 C   0  0  0  0  0  0  0  0  0  0  0  0
  -25.7808  -54.4612  -16.0301 C   0  0  0  0  0  0  0  0  0  0  0  0
  -26.1340  -54.3737  -17.3783 C   0  0  0  0  0  0  0  0  0  0  0  0
  -27.4377  -54.7118  -17.7619 N   0  0  0  0  0  0  0  0  0  0  0  0
  -27.8774  -54.6909  -19.0560 C   0  0  0  0  0  0  0  0  0  0  0  0
  -29.0181  -55.0191  -19.3623 O   0  0  0  0  0  0  0  0  0  0  0  0
  -26.9140  -54.2352  -20.0789 C   0  0  0  0  0  0  0  0  0  0  0  0
  -25.6679  -53.8787  -19.7499 C   0  0  0  0  0  0  0  0  0  0  0  0
  -24.8148  -53.4012  -20.7236 O   0  0  0  0  0  0  0  0  0  0  0  0
  -25.2045  -53.9678  -18.3525 C   0  0  0  0  0  0  0  0  0  0  0  0
  -23.8920  -53.6951  -17.9458 C   0  0  0  0  0  0  0  0  0  0  0  0
  -28.0737  -54.9797  -17.0596 H   0  0  0  0  0  0  0  0  0  0  0  0
  -25.1046  -53.3427  -21.6127 H   0  0  0  0  0  0  0  0  0  0  0  0
  -19.1113  -53.1165  -16.7153 C   0  0  0  0  0  0  0  0  0  0  0  0
  -18.1217  -53.5069  -17.7922 C   0  0  0  0  0  0  0  0  0  0  0  0
  -18.1743  -54.7849  -18.3677 C   0  0  0  0  0  0  0  0  0  0  0  0
  -17.2791  -55.1467  -19.3749 C   0  0  0  0  0  0  0  0  0  0  0  0
  -16.3225  -54.2358  -19.8173 C   0  0  0  0  0  0  0  0  0  0  0  0
  -16.2588  -52.9641  -19.2508 C   0  0  0  0  0  0  0  0  0  0  0  0
  -17.1522  -52.6007  -18.2418 C   0  0  0  0  0  0  0  0  0  0  0  0
  7  8  1  0
  8  9  2  0
  9 10  1  0
 10 11  2  0
 11 12  1  0
 12  6  1  0
  6  2  1  0
  2  3  1  0
  3  4  2  0
  3  1  1  0
  1 38  1  0
 38 39  1  0
 39 40  2  0
 40 41  1  0
 41 42  2  0
 42 43  1  0
 43 44  2  0
  1 20  1  0
 20 21  1  0
 21 22  2  0
 21 24  1  0
 24 25  2  0
 25 26  1  0
 26 27  2  0
 27 28  1  0
 28 29  1  0
 29 30  2  0
 29 31  1  0
 31 32  2  0
 32 33  1  0
 32 34  1  0
 34 35  2  0
 12 13  2  0
 13 14  1  0
 14 15  2  0
 15 16  1  0
 16 17  2  0
 17  8  1  0
 16 11  1  0
 44 39  1  0
 35 24  1  0
 34 27  1  0
  7 18  1  0
  7 19  1  0
  2  5  1  0
 20 23  1  0
 28 36  1  0
 33 37  1  0
M  END
> <minimizedAffinity>
-8.89913

> <CNNscore>
0.3734324574

> <CNNaffinity>
7.0355587006

> <CNN_VS>
2.6273059845

> <CNNaffinity_variance>
0.0511746518

$$$$
