


 26 27  0  0  0  0  0  0  0  0999 V2000
   80.4988    5.0373   32.3991 N   0  0  0  0  0  0  0  0  0  0  0  0
   79.5179    5.0638   32.1206 H   0  0  0  0  0  0  0  0  0  0  0  0
   81.3652    5.9084   31.2700 S   0  0  0  0  0  0  0  0  0  0  0  0
   81.8769    7.0958   31.9169 O   0  0  0  0  0  0  0  0  0  0  0  0
   82.2251    5.0027   30.5469 O   0  0  0  0  0  0  0  0  0  0  0  0
   80.2668    6.4994   30.0672 C   0  0  0  0  0  0  0  0  0  0  0  0
   80.5765    7.5976   29.2042 C   0  0  0  0  0  0  0  0  0  0  0  0
   79.5541    7.8391   28.3290 C   0  0  0  0  0  0  0  0  0  0  0  0
   79.5958    8.8194   27.4131 F   0  0  0  0  0  0  0  0  0  0  0  0
   78.2472    6.7872   28.5156 S   0  0  0  0  0  0  0  0  0  0  0  0
   79.0196    5.9489   29.8098 C   0  0  0  0  0  0  0  0  0  0  0  0
   78.3571    4.8531   30.4822 C   0  0  0  0  0  0  0  0  0  0  0  0
   78.6101    3.6608   30.4057 O   0  0  0  0  0  0  0  0  0  0  0  0
   77.3503    5.2628   31.2856 O   0  0  0  0  0  0  0  0  0  0  0  0
   77.1462    6.1749   31.3529 H   0  0  0  0  0  0  0  0  0  0  0  0
   80.5740    5.4860   33.7898 C   0  0  0  0  0  0  0  0  0  0  0  0
   84.1954    4.0976   35.7121 C   0  0  0  0  0  0  0  0  0  0  0  0
   83.3846    5.0459   36.3444 C   0  0  0  0  0  0  0  0  0  0  0  0
   82.2113    5.4899   35.7287 C   0  0  0  0  0  0  0  0  0  0  0  0
   81.8251    4.9859   34.4768 C   0  0  0  0  0  0  0  0  0  0  0  0
   82.6500    4.0441   33.8441 C   0  0  0  0  0  0  0  0  0  0  0  0
   83.8251    3.5988   34.4583 C   0  0  0  0  0  0  0  0  0  0  0  0
   85.9532    4.2082   37.3537 O   0  0  0  0  0  0  0  0  0  0  0  0
   85.4316    3.6567   36.4023 C   0  0  0  0  0  0  0  0  0  0  0  0
   85.9594    2.5415   35.8671 O   0  0  0  0  0  0  0  0  0  0  0  0
   85.5434    2.1311   35.1346 H   0  0  0  0  0  0  0  0  0  0  0  0
 23 24  2  0
 24 25  1  0
 24 17  1  0
 17 18  2  0
 18 19  1  0
 19 20  2  0
 20 16  1  0
 16  1  1  0
  1  3  1  0
  3  4  2  0
  3  5  2  0
  3  6  1  0
  6  7  1  0
  7  8  2  0
  8  9  1  0
  8 10  1  0
 10 11  1  0
 11 12  1  0
 12 13  2  0
 12 14  1  0
 20 21  1  0
 21 22  2  0
 22 17  1  0
 11  6  2  0
 25 26  1  0
  1  2  1  0
 14 15  1  0
M  END
> <minimizedAffinity>
-7.15289

> <CNNscore>
0.8161271214

> <CNNaffinity>
4.5727324486

> <CNN_VS>
3.7319309711

> <CNNaffinity_variance>
0.1055064574

$$$$



 26 27  0  0  0  0  0  0  0  0999 V2000
   80.1605    4.4308   32.1343 N   0  0  0  0  0  0  0  0  0  0  0  0
   79.6834    3.5675   32.3942 H   0  0  0  0  0  0  0  0  0  0  0  0
   79.3596    5.0703   30.8174 S   0  0  0  0  0  0  0  0  0  0  0  0
   78.5026    4.0418   30.2716 O   0  0  0  0  0  0  0  0  0  0  0  0
   78.8553    6.3753   31.1711 O   0  0  0  0  0  0  0  0  0  0  0  0
   80.5176    5.3889   29.5684 C   0  0  0  0  0  0  0  0  0  0  0  0
   81.9225    5.1792   29.7390 C   0  0  0  0  0  0  0  0  0  0  0  0
   82.6071    5.4768   28.5934 C   0  0  0  0  0  0  0  0  0  0  0  0
   83.9408    5.3647   28.4921 F   0  0  0  0  0  0  0  0  0  0  0  0
   81.6124    5.9931   27.3311 S   0  0  0  0  0  0  0  0  0  0  0  0
   80.1918    5.8361   28.2961 C   0  0  0  0  0  0  0  0  0  0  0  0
   78.8918    6.1761   27.7610 C   0  0  0  0  0  0  0  0  0  0  0  0
   78.2277    5.5537   26.9467 O   0  0  0  0  0  0  0  0  0  0  0  0
   78.4008    7.3284   28.2690 O   0  0  0  0  0  0  0  0  0  0  0  0
   78.9006    7.8151   28.8945 H   0  0  0  0  0  0  0  0  0  0  0  0
   80.2461    5.2649   33.3333 C   0  0  0  0  0  0  0  0  0  0  0  0
   83.9677    4.6271   35.4502 C   0  0  0  0  0  0  0  0  0  0  0  0
   83.1137    5.6678   35.8301 C   0  0  0  0  0  0  0  0  0  0  0  0
   81.9084    5.8707   35.1527 C   0  0  0  0  0  0  0  0  0  0  0  0
   81.5333    5.0310   34.0922 C   0  0  0  0  0  0  0  0  0  0  0  0
   82.4008    3.9971   33.7098 C   0  0  0  0  0  0  0  0  0  0  0  0
   83.6079    3.7926   34.3862 C   0  0  0  0  0  0  0  0  0  0  0  0
   85.4007    3.7314   37.1651 O   0  0  0  0  0  0  0  0  0  0  0  0
   85.2366    4.4502   36.1969 C   0  0  0  0  0  0  0  0  0  0  0  0
   86.2451    5.1846   35.6945 O   0  0  0  0  0  0  0  0  0  0  0  0
   86.0994    5.7323   34.9483 H   0  0  0  0  0  0  0  0  0  0  0  0
 23 24  2  0
 24 25  1  0
 24 17  1  0
 17 18  2  0
 18 19  1  0
 19 20  2  0
 20 16  1  0
 16  1  1  0
  1  3  1  0
  3  4  2  0
  3  5  2  0
  3  6  1  0
  6  7  1  0
  7  8  2  0
  8  9  1  0
  8 10  1  0
 10 11  1  0
 11 12  1  0
 12 13  2  0
 12 14  1  0
 20 21  1  0
 21 22  2  0
 22 17  1  0
 11  6  2  0
 25 26  1  0
  1  2  1  0
 14 15  1  0
M  END
> <minimizedAffinity>
-7.00850

> <CNNscore>
0.7669650912

> <CNNaffinity>
4.4821085930

> <CNN_VS>
3.4376208782

> <CNNaffinity_variance>
0.1531331539

$$$$



 26 27  0  0  0  0  0  0  0  0999 V2000
   80.0119    5.0773   29.8121 N   0  0  0  0  0  0  0  0  0  0  0  0
   80.9315    4.6389   29.8621 H   0  0  0  0  0  0  0  0  0  0  0  0
   79.3843    4.7570   28.2995 S   0  0  0  0  0  0  0  0  0  0  0  0
   79.0395    3.3541   28.2456 O   0  0  0  0  0  0  0  0  0  0  0  0
   78.4336    5.7898   27.9645 O   0  0  0  0  0  0  0  0  0  0  0  0
   80.6457    4.9472   27.1268 C   0  0  0  0  0  0  0  0  0  0  0  0
   81.9163    5.5259   27.4388 C   0  0  0  0  0  0  0  0  0  0  0  0
   82.7377    5.5282   26.3458 C   0  0  0  0  0  0  0  0  0  0  0  0
   83.9868    6.0188   26.3745 F   0  0  0  0  0  0  0  0  0  0  0  0
   82.0273    4.8560   24.9700 S   0  0  0  0  0  0  0  0  0  0  0  0
   80.5548    4.5305   25.8067 C   0  0  0  0  0  0  0  0  0  0  0  0
   79.4326    3.9264   25.1229 C   0  0  0  0  0  0  0  0  0  0  0  0
   78.2520    4.2288   25.2029 O   0  0  0  0  0  0  0  0  0  0  0  0
   79.8000    2.9165   24.3032 O   0  0  0  0  0  0  0  0  0  0  0  0
   80.7026    2.6749   24.2329 H   0  0  0  0  0  0  0  0  0  0  0  0
   79.2405    4.6156   30.9665 C   0  0  0  0  0  0  0  0  0  0  0  0
   81.4901    5.1126   34.6313 C   0  0  0  0  0  0  0  0  0  0  0  0
   80.7470    6.1788   34.1140 C   0  0  0  0  0  0  0  0  0  0  0  0
   80.0142    6.0180   32.9350 C   0  0  0  0  0  0  0  0  0  0  0  0
   80.0047    4.7871   32.2604 C   0  0  0  0  0  0  0  0  0  0  0  0
   80.7621    3.7265   32.7794 C   0  0  0  0  0  0  0  0  0  0  0  0
   81.4967    3.8855   33.9590 C   0  0  0  0  0  0  0  0  0  0  0  0
   83.3189    4.8151   36.1687 O   0  0  0  0  0  0  0  0  0  0  0  0
   82.2532    5.3294   35.8841 C   0  0  0  0  0  0  0  0  0  0  0  0
   81.6440    6.1834   36.7258 O   0  0  0  0  0  0  0  0  0  0  0  0
   80.8237    6.5694   36.4890 H   0  0  0  0  0  0  0  0  0  0  0  0
 23 24  2  0
 24 25  1  0
 24 17  1  0
 17 18  2  0
 18 19  1  0
 19 20  2  0
 20 16  1  0
 16  1  1  0
  1  3  1  0
  3  4  2  0
  3  5  2  0
  3  6  1  0
  6  7  1  0
  7  8  2  0
  8  9  1  0
  8 10  1  0
 10 11  1  0
 11 12  1  0
 12 13  2  0
 12 14  1  0
 20 21  1  0
 21 22  2  0
 22 17  1  0
 11  6  2  0
 25 26  1  0
  1  2  1  0
 14 15  1  0
M  END
> <minimizedAffinity>
-8.15559

> <CNNscore>
0.7626951337

> <CNNaffinity>
5.1796736717

> <CNN_VS>
3.9505119324

> <CNNaffinity_variance>
0.3177312016

$$$$



 26 27  0  0  0  0  0  0  0  0999 V2000
   80.1480    6.4963   31.4268 N   0  0  0  0  0  0  0  0  0  0  0  0
   81.1017    6.8573   31.4487 H   0  0  0  0  0  0  0  0  0  0  0  0
   80.0498    5.4133   30.1612 S   0  0  0  0  0  0  0  0  0  0  0  0
   81.3661    4.8554   29.9460 O   0  0  0  0  0  0  0  0  0  0  0  0
   78.8894    4.5777   30.3558 O   0  0  0  0  0  0  0  0  0  0  0  0
   79.6996    6.2915   28.7091 C   0  0  0  0  0  0  0  0  0  0  0  0
   79.5256    7.7112   28.6821 C   0  0  0  0  0  0  0  0  0  0  0  0
   79.2911    8.1541   27.4099 C   0  0  0  0  0  0  0  0  0  0  0  0
   79.0925    9.4483   27.1143 F   0  0  0  0  0  0  0  0  0  0  0  0
   79.2787    6.9186   26.2599 S   0  0  0  0  0  0  0  0  0  0  0  0
   79.5923    5.7131   27.4526 C   0  0  0  0  0  0  0  0  0  0  0  0
   79.6853    4.3167   27.0875 C   0  0  0  0  0  0  0  0  0  0  0  0
   80.1728    3.8346   26.0768 O   0  0  0  0  0  0  0  0  0  0  0  0
   79.1601    3.4942   28.0226 O   0  0  0  0  0  0  0  0  0  0  0  0
   78.7831    3.8516   28.8024 H   0  0  0  0  0  0  0  0  0  0  0  0
   79.8378    5.9903   32.7643 C   0  0  0  0  0  0  0  0  0  0  0  0
   83.3314    4.5020   34.8423 C   0  0  0  0  0  0  0  0  0  0  0  0
   82.3833    3.6079   34.3339 C   0  0  0  0  0  0  0  0  0  0  0  0
   81.2587    4.0862   33.6563 C   0  0  0  0  0  0  0  0  0  0  0  0
   81.0690    5.4642   33.4677 C   0  0  0  0  0  0  0  0  0  0  0  0
   82.0183    6.3546   33.9910 C   0  0  0  0  0  0  0  0  0  0  0  0
   83.1444    5.8780   34.6700 C   0  0  0  0  0  0  0  0  0  0  0  0
   85.5718    3.6447   35.0479 O   0  0  0  0  0  0  0  0  0  0  0  0
   84.5083    3.9493   35.5553 C   0  0  0  0  0  0  0  0  0  0  0  0
   84.2981    3.8030   36.8756 O   0  0  0  0  0  0  0  0  0  0  0  0
   83.4725    4.0432   37.2480 H   0  0  0  0  0  0  0  0  0  0  0  0
 23 24  2  0
 24 25  1  0
 24 17  1  0
 17 18  2  0
 18 19  1  0
 19 20  2  0
 20 16  1  0
 16  1  1  0
  1  3  1  0
  3  4  2  0
  3  5  2  0
  3  6  1  0
  6  7  1  0
  7  8  2  0
  8  9  1  0
  8 10  1  0
 10 11  1  0
 11 12  1  0
 12 13  2  0
 12 14  1  0
 20 21  1  0
 21 22  2  0
 22 17  1  0
 11  6  2  0
 25 26  1  0
  1  2  1  0
 14 15  1  0
M  END
> <minimizedAffinity>
-7.10540

> <CNNscore>
0.7226918340

> <CNNaffinity>
4.6653904915

> <CNN_VS>
3.3716397285

> <CNNaffinity_variance>
0.0200419556

$$$$



 26 27  0  0  0  0  0  0  0  0999 V2000
   79.4053    6.6117   31.3087 N   0  0  0  0  0  0  0  0  0  0  0  0
   80.2851    7.1231   31.2393 H   0  0  0  0  0  0  0  0  0  0  0  0
   78.5754    6.8438   29.8798 S   0  0  0  0  0  0  0  0  0  0  0  0
   77.8702    5.6209   29.5677 O   0  0  0  0  0  0  0  0  0  0  0  0
   77.9026    8.1192   29.9370 O   0  0  0  0  0  0  0  0  0  0  0  0
   79.7256    7.0298   28.5972 C   0  0  0  0  0  0  0  0  0  0  0  0
   80.5452    8.1932   28.4508 C   0  0  0  0  0  0  0  0  0  0  0  0
   81.3856    8.0714   27.3791 C   0  0  0  0  0  0  0  0  0  0  0  0
   82.2573    9.0285   27.0247 F   0  0  0  0  0  0  0  0  0  0  0  0
   81.2172    6.6072   26.5562 S   0  0  0  0  0  0  0  0  0  0  0  0
   79.9795    6.0685   27.6296 C   0  0  0  0  0  0  0  0  0  0  0  0
   79.3423    4.7840   27.4400 C   0  0  0  0  0  0  0  0  0  0  0  0
   78.5757    4.4490   26.5503 O   0  0  0  0  0  0  0  0  0  0  0  0
   79.6833    3.8845   28.3894 O   0  0  0  0  0  0  0  0  0  0  0  0
   80.2706    4.1291   29.0773 H   0  0  0  0  0  0  0  0  0  0  0  0
   79.7255    5.2327   31.6785 C   0  0  0  0  0  0  0  0  0  0  0  0
   81.8824    5.0185   35.4255 C   0  0  0  0  0  0  0  0  0  0  0  0
   81.9016    3.9344   34.5417 C   0  0  0  0  0  0  0  0  0  0  0  0
   81.2120    4.0045   33.3283 C   0  0  0  0  0  0  0  0  0  0  0  0
   80.5011    5.1621   32.9750 C   0  0  0  0  0  0  0  0  0  0  0  0
   80.4770    6.2403   33.8721 C   0  0  0  0  0  0  0  0  0  0  0  0
   81.1662    6.1720   35.0873 C   0  0  0  0  0  0  0  0  0  0  0  0
   83.7432    4.4312   36.8359 O   0  0  0  0  0  0  0  0  0  0  0  0
   82.6276    4.8989   36.7019 C   0  0  0  0  0  0  0  0  0  0  0  0
   81.9385    5.3721   37.7555 O   0  0  0  0  0  0  0  0  0  0  0  0
   81.0807    5.7284   37.6325 H   0  0  0  0  0  0  0  0  0  0  0  0
 23 24  2  0
 24 25  1  0
 24 17  1  0
 17 18  2  0
 18 19  1  0
 19 20  2  0
 20 16  1  0
 16  1  1  0
  1  3  1  0
  3  4  2  0
  3  5  2  0
  3  6  1  0
  6  7  1  0
  7  8  2  0
  8  9  1  0
  8 10  1  0
 10 11  1  0
 11 12  1  0
 12 13  2  0
 12 14  1  0
 20 21  1  0
 21 22  2  0
 22 17  1  0
 11  6  2  0
 25 26  1  0
  1  2  1  0
 14 15  1  0
M  END
> <minimizedAffinity>
-8.28063

> <CNNscore>
0.6774799824

> <CNNaffinity>
4.2465043068

> <CNN_VS>
2.8769216537

> <CNNaffinity_variance>
0.4344589710

$$$$



 26 27  0  0  0  0  0  0  0  0999 V2000
   81.0628    5.2539   30.8193 N   0  0  0  0  0  0  0  0  0  0  0  0
   82.0217    5.4924   31.0722 H   0  0  0  0  0  0  0  0  0  0  0  0
   80.2531    4.8688   32.2266 S   0  0  0  0  0  0  0  0  0  0  0  0
   78.9214    5.4255   32.1437 O   0  0  0  0  0  0  0  0  0  0  0  0
   80.4804    3.4753   32.5250 O   0  0  0  0  0  0  0  0  0  0  0  0
   81.0025    5.7107   33.5427 C   0  0  0  0  0  0  0  0  0  0  0  0
   80.3285    6.7138   34.3083 C   0  0  0  0  0  0  0  0  0  0  0  0
   81.1319    7.1953   35.3044 C   0  0  0  0  0  0  0  0  0  0  0  0
   80.7353    8.1468   36.1640 F   0  0  0  0  0  0  0  0  0  0  0  0
   82.6585    6.4761   35.3429 S   0  0  0  0  0  0  0  0  0  0  0  0
   82.2929    5.4691   33.9914 C   0  0  0  0  0  0  0  0  0  0  0  0
   83.2788    4.5525   33.4628 C   0  0  0  0  0  0  0  0  0  0  0  0
   83.7188    3.5391   33.9834 O   0  0  0  0  0  0  0  0  0  0  0  0
   83.7223    4.9093   32.2369 O   0  0  0  0  0  0  0  0  0  0  0  0
   83.3925    5.6846   31.8267 H   0  0  0  0  0  0  0  0  0  0  0  0
   80.5293    6.3596   30.0232 C   0  0  0  0  0  0  0  0  0  0  0  0
   78.9338    5.0393   26.2220 C   0  0  0  0  0  0  0  0  0  0  0  0
   79.8567    4.2444   26.9099 C   0  0  0  0  0  0  0  0  0  0  0  0
   80.3672    4.6655   28.1407 C   0  0  0  0  0  0  0  0  0  0  0  0
   79.9562    5.8821   28.7075 C   0  0  0  0  0  0  0  0  0  0  0  0
   79.0396    6.6789   28.0056 C   0  0  0  0  0  0  0  0  0  0  0  0
   78.5277    6.2595   26.7733 C   0  0  0  0  0  0  0  0  0  0  0  0
   79.0627    4.4542   23.8901 O   0  0  0  0  0  0  0  0  0  0  0  0
   78.4199    4.5528   24.9188 C   0  0  0  0  0  0  0  0  0  0  0  0
   77.1199    4.2113   24.9645 O   0  0  0  0  0  0  0  0  0  0  0  0
   76.6416    4.2942   25.7659 H   0  0  0  0  0  0  0  0  0  0  0  0
 23 24  2  0
 24 25  1  0
 24 17  1  0
 17 18  2  0
 18 19  1  0
 19 20  2  0
 20 16  1  0
 16  1  1  0
  1  3  1  0
  3  4  2  0
  3  5  2  0
  3  6  1  0
  6  7  1  0
  7  8  2  0
  8  9  1  0
  8 10  1  0
 10 11  1  0
 11 12  1  0
 12 13  2  0
 12 14  1  0
 20 21  1  0
 21 22  2  0
 22 17  1  0
 11  6  2  0
 25 26  1  0
  1  2  1  0
 14 15  1  0
M  END
> <minimizedAffinity>
-7.54250

> <CNNscore>
0.6442734003

> <CNNaffinity>
4.7761998177

> <CNN_VS>
3.0771784782

> <CNNaffinity_variance>
0.0004529154

$$$$



 26 27  0  0  0  0  0  0  0  0999 V2000
   82.1877    5.9680   32.4737 N   0  0  0  0  0  0  0  0  0  0  0  0
   81.7174    6.7922   32.0996 H   0  0  0  0  0  0  0  0  0  0  0  0
   81.3111    5.4455   33.7939 S   0  0  0  0  0  0  0  0  0  0  0  0
   80.1701    6.3197   33.9483 O   0  0  0  0  0  0  0  0  0  0  0  0
   81.1688    4.0115   33.7171 O   0  0  0  0  0  0  0  0  0  0  0  0
   82.2591    5.7003   35.2219 C   0  0  0  0  0  0  0  0  0  0  0  0
   81.7677    6.4054   36.3655 C   0  0  0  0  0  0  0  0  0  0  0  0
   82.7020    6.4365   37.3633 C   0  0  0  0  0  0  0  0  0  0  0  0
   82.4878    7.0400   38.5430 F   0  0  0  0  0  0  0  0  0  0  0  0
   84.1381    5.6445   36.9640 S   0  0  0  0  0  0  0  0  0  0  0  0
   83.5490    5.2214   35.3994 C   0  0  0  0  0  0  0  0  0  0  0  0
   84.3792    4.4889   34.4687 C   0  0  0  0  0  0  0  0  0  0  0  0
   85.1641    4.9372   33.6474 O   0  0  0  0  0  0  0  0  0  0  0  0
   84.2306    3.1498   34.5755 O   0  0  0  0  0  0  0  0  0  0  0  0
   83.6316    2.7933   35.2017 H   0  0  0  0  0  0  0  0  0  0  0  0
   82.3620    5.0220   31.3711 C   0  0  0  0  0  0  0  0  0  0  0  0
   79.6852    5.8046   28.0605 C   0  0  0  0  0  0  0  0  0  0  0  0
   79.2168    5.8860   29.3760 C   0  0  0  0  0  0  0  0  0  0  0  0
   80.0813    5.6409   30.4463 C   0  0  0  0  0  0  0  0  0  0  0  0
   81.4289    5.3207   30.2189 C   0  0  0  0  0  0  0  0  0  0  0  0
   81.8878    5.2295   28.8965 C   0  0  0  0  0  0  0  0  0  0  0  0
   81.0240    5.4739   27.8238 C   0  0  0  0  0  0  0  0  0  0  0  0
   77.9118    5.2875   26.5164 O   0  0  0  0  0  0  0  0  0  0  0  0
   78.7319    6.0717   26.9565 C   0  0  0  0  0  0  0  0  0  0  0  0
   78.8503    7.3131   26.4527 O   0  0  0  0  0  0  0  0  0  0  0  0
   79.4877    7.9027   26.8048 H   0  0  0  0  0  0  0  0  0  0  0  0
 23 24  2  0
 24 25  1  0
 24 17  1  0
 17 18  2  0
 18 19  1  0
 19 20  2  0
 20 16  1  0
 16  1  1  0
  1  3  1  0
  3  4  2  0
  3  5  2  0
  3  6  1  0
  6  7  1  0
  7  8  2  0
  8  9  1  0
  8 10  1  0
 10 11  1  0
 11 12  1  0
 12 13  2  0
 12 14  1  0
 20 21  1  0
 21 22  2  0
 22 17  1  0
 11  6  2  0
 25 26  1  0
  1  2  1  0
 14 15  1  0
M  END
> <minimizedAffinity>
-6.18472

> <CNNscore>
0.5889074206

> <CNNaffinity>
3.8795671463

> <CNN_VS>
2.2847058773

> <CNNaffinity_variance>
0.2815947235

$$$$



 26 27  0  0  0  0  0  0  0  0999 V2000
   80.1244    4.8173   30.8939 N   0  0  0  0  0  0  0  0  0  0  0  0
   79.3161    4.5359   30.3391 H   0  0  0  0  0  0  0  0  0  0  0  0
   81.1110    5.7382   29.9127 S   0  0  0  0  0  0  0  0  0  0  0  0
   81.2405    7.0481   30.5106 O   0  0  0  0  0  0  0  0  0  0  0  0
   82.2627    4.9506   29.5440 O   0  0  0  0  0  0  0  0  0  0  0  0
   80.2916    6.0170   28.4115 C   0  0  0  0  0  0  0  0  0  0  0  0
   80.8396    5.6400   27.1450 C   0  0  0  0  0  0  0  0  0  0  0  0
   79.9791    5.9431   26.1266 C   0  0  0  0  0  0  0  0  0  0  0  0
   80.2581    5.6907   24.8381 F   0  0  0  0  0  0  0  0  0  0  0  0
   78.5431    6.6588   26.6508 S   0  0  0  0  0  0  0  0  0  0  0  0
   79.0329    6.5904   28.3030 C   0  0  0  0  0  0  0  0  0  0  0  0
   78.1819    7.1118   29.3498 C   0  0  0  0  0  0  0  0  0  0  0  0
   78.3325    8.1331   30.0024 O   0  0  0  0  0  0  0  0  0  0  0  0
   77.1002    6.3352   29.5816 O   0  0  0  0  0  0  0  0  0  0  0  0
   76.9733    5.5492   29.0876 H   0  0  0  0  0  0  0  0  0  0  0  0
   79.6224    5.4470   32.1155 C   0  0  0  0  0  0  0  0  0  0  0  0
   82.2676    4.8720   35.4935 C   0  0  0  0  0  0  0  0  0  0  0  0
   82.1058    3.8543   34.5476 C   0  0  0  0  0  0  0  0  0  0  0  0
   81.2580    4.0408   33.4525 C   0  0  0  0  0  0  0  0  0  0  0  0
   80.5668    5.2503   33.2804 C   0  0  0  0  0  0  0  0  0  0  0  0
   80.7254    6.2614   34.2397 C   0  0  0  0  0  0  0  0  0  0  0  0
   81.5730    6.0766   35.3368 C   0  0  0  0  0  0  0  0  0  0  0  0
   84.2904    4.1430   36.5767 O   0  0  0  0  0  0  0  0  0  0  0  0
   83.1765    4.6292   36.6397 C   0  0  0  0  0  0  0  0  0  0  0  0
   82.6463    5.0079   37.8163 O   0  0  0  0  0  0  0  0  0  0  0  0
   81.7870    5.3804   37.8447 H   0  0  0  0  0  0  0  0  0  0  0  0
 23 24  2  0
 24 25  1  0
 24 17  1  0
 17 18  2  0
 18 19  1  0
 19 20  2  0
 20 16  1  0
 16  1  1  0
  1  3  1  0
  3  4  2  0
  3  5  2  0
  3  6  1  0
  6  7  1  0
  7  8  2  0
  8  9  1  0
  8 10  1  0
 10 11  1  0
 11 12  1  0
 12 13  2  0
 12 14  1  0
 20 21  1  0
 21 22  2  0
 22 17  1  0
 11  6  2  0
 25 26  1  0
  1  2  1  0
 14 15  1  0
M  END
> <minimizedAffinity>
-8.35621

> <CNNscore>
0.5661113858

> <CNNaffinity>
4.5837564468

> <CNN_VS>
2.5949168205

> <CNNaffinity_variance>
0.1984656602

$$$$



 26 27  0  0  0  0  0  0  0  0999 V2000
   79.6119    6.5808   31.2711 N   0  0  0  0  0  0  0  0  0  0  0  0
   80.3919    7.0776   31.7016 H   0  0  0  0  0  0  0  0  0  0  0  0
   79.9112    6.5004   29.6315 S   0  0  0  0  0  0  0  0  0  0  0  0
   80.5728    5.2443   29.3581 O   0  0  0  0  0  0  0  0  0  0  0  0
   78.7211    6.9060   28.9232 O   0  0  0  0  0  0  0  0  0  0  0  0
   81.0799    7.7130   29.2235 C   0  0  0  0  0  0  0  0  0  0  0  0
   80.8951    8.6407   28.1502 C   0  0  0  0  0  0  0  0  0  0  0  0
   81.9482    9.5084   28.0631 C   0  0  0  0  0  0  0  0  0  0  0  0
   82.0187   10.4774   27.1370 F   0  0  0  0  0  0  0  0  0  0  0  0
   83.1385    9.2398   29.2295 S   0  0  0  0  0  0  0  0  0  0  0  0
   82.2677    7.9162   29.9108 C   0  0  0  0  0  0  0  0  0  0  0  0
   82.8062    7.1723   31.0282 C   0  0  0  0  0  0  0  0  0  0  0  0
   83.4029    6.1070   31.0046 O   0  0  0  0  0  0  0  0  0  0  0  0
   82.6007    7.7864   32.2146 O   0  0  0  0  0  0  0  0  0  0  0  0
   82.1443    8.6041   32.2461 H   0  0  0  0  0  0  0  0  0  0  0  0
   79.4504    5.3129   31.9833 C   0  0  0  0  0  0  0  0  0  0  0  0
   82.2437    4.9950   35.2749 C   0  0  0  0  0  0  0  0  0  0  0  0
   81.4081    6.1118   35.1690 C   0  0  0  0  0  0  0  0  0  0  0  0
   80.5006    6.2127   34.1112 C   0  0  0  0  0  0  0  0  0  0  0  0
   80.4070    5.1951   33.1489 C   0  0  0  0  0  0  0  0  0  0  0  0
   81.2568    4.0841   33.2557 C   0  0  0  0  0  0  0  0  0  0  0  0
   82.1663    3.9814   34.3134 C   0  0  0  0  0  0  0  0  0  0  0  0
   83.2611    5.7287   37.3300 O   0  0  0  0  0  0  0  0  0  0  0  0
   83.1919    4.9312   36.4132 C   0  0  0  0  0  0  0  0  0  0  0  0
   84.0128    3.8676   36.3505 O   0  0  0  0  0  0  0  0  0  0  0  0
   83.9444    3.2645   35.6367 H   0  0  0  0  0  0  0  0  0  0  0  0
 23 24  2  0
 24 25  1  0
 24 17  1  0
 17 18  2  0
 18 19  1  0
 19 20  2  0
 20 16  1  0
 16  1  1  0
  1  3  1  0
  3  4  2  0
  3  5  2  0
  3  6  1  0
  6  7  1  0
  7  8  2  0
  8  9  1  0
  8 10  1  0
 10 11  1  0
 11 12  1  0
 12 13  2  0
 12 14  1  0
 20 21  1  0
 21 22  2  0
 22 17  1  0
 11  6  2  0
 25 26  1  0
  1  2  1  0
 14 15  1  0
M  END
> <minimizedAffinity>
-6.42692

> <CNNscore>
0.5225060582

> <CNNaffinity>
3.9141216278

> <CNN_VS>
2.0451521873

> <CNNaffinity_variance>
0.1946659833

$$$$
