


 17 18  0  0  0  0  0  0  0  0999 V2000
   13.4934    9.9324   -2.1330 C   0  0  0  0  0  0  0  0  0  0  0  0
   13.4779   10.1657   -0.7512 C   0  0  0  0  0  0  0  0  0  0  0  0
   14.7040   10.4356   -0.1416 C   0  0  0  0  0  0  0  0  0  0  0  0
   14.8802   10.6844    1.1840 O   0  0  0  0  0  0  0  0  0  0  0  0
   16.2057   10.9012    1.3750 C   0  0  0  0  0  0  0  0  0  0  0  0
   16.9035   10.7890    0.1881 C   0  0  0  0  0  0  0  0  0  0  0  0
   15.9216   10.4862   -0.8061 C   0  0  0  0  0  0  0  0  0  0  0  0
   15.9318   10.2518   -2.1916 C   0  0  0  0  0  0  0  0  0  0  0  0
   14.7128    9.9766   -2.8357 C   0  0  0  0  0  0  0  0  0  0  0  0
   14.7813    9.6642   -4.7137 Br  0  0  0  0  0  0  0  0  0  0  0  0
   12.5279    9.4804   -4.2741 C   0  0  0  0  0  0  0  0  0  0  0  0
   12.3701    9.6519   -2.8716 O   0  0  0  0  0  0  0  0  0  0  0  0
   18.3739   10.9485   -0.0042 C   0  0  0  0  0  0  0  0  0  0  0  0
   19.1554   10.7646    1.2747 C   0  0  0  0  0  0  0  0  0  0  0  0
   19.6141   11.6200    2.0120 O   0  0  0  0  0  0  0  0  0  0  0  0
   19.3149    9.4579    1.5799 O   0  0  0  0  0  0  0  0  0  0  0  0
   18.9632    8.7985    1.0147 H   0  0  0  0  0  0  0  0  0  0  0  0
 11 12  1  0
 12  1  1  0
  1  2  2  0
  2  3  1  0
  3  4  1  0
  4  5  1  0
  5  6  2  0
  6 13  1  0
 13 14  1  0
 14 15  2  0
 14 16  1  0
  6  7  1  0
  7  8  1  0
  8  9  2  0
  9 10  1  0
  9  1  1  0
  7  3  2  0
 16 17  1  0
M  END
> <minimizedAffinity>
-7.74852

> <CNNscore>
0.6914191246

> <CNNaffinity>
4.1941528320

> <CNN_VS>
2.8999173641

> <CNNaffinity_variance>
0.5791676044

$$$$



 17 18  0  0  0  0  0  0  0  0999 V2000
   13.5661   10.5285   -0.9818 C   0  0  0  0  0  0  0  0  0  0  0  0
   13.4979   10.6709    0.4108 C   0  0  0  0  0  0  0  0  0  0  0  0
   14.7028   10.6117    1.1123 C   0  0  0  0  0  0  0  0  0  0  0  0
   14.8286   10.7286    2.4616 O   0  0  0  0  0  0  0  0  0  0  0  0
   16.1502   10.6215    2.7485 C   0  0  0  0  0  0  0  0  0  0  0  0
   16.8936   10.4271    1.6004 C   0  0  0  0  0  0  0  0  0  0  0  0
   15.9478   10.4225    0.5283 C   0  0  0  0  0  0  0  0  0  0  0  0
   16.0109   10.2805   -0.8684 C   0  0  0  0  0  0  0  0  0  0  0  0
   14.8142   10.3351   -1.6043 C   0  0  0  0  0  0  0  0  0  0  0  0
   14.9541   10.1351   -3.4936 Br  0  0  0  0  0  0  0  0  0  0  0  0
   12.4209    9.6314   -2.8804 C   0  0  0  0  0  0  0  0  0  0  0  0
   12.4684   10.5618   -1.8064 O   0  0  0  0  0  0  0  0  0  0  0  0
   18.3723   10.2554    1.5100 C   0  0  0  0  0  0  0  0  0  0  0  0
   19.0750   11.4889    0.9952 C   0  0  0  0  0  0  0  0  0  0  0  0
   19.9573   11.5642    0.1575 O   0  0  0  0  0  0  0  0  0  0  0  0
   18.6019   12.6133    1.5764 O   0  0  0  0  0  0  0  0  0  0  0  0
   17.9237   12.5580    2.2206 H   0  0  0  0  0  0  0  0  0  0  0  0
 11 12  1  0
 12  1  1  0
  1  2  2  0
  2  3  1  0
  3  4  1  0
  4  5  1  0
  5  6  2  0
  6 13  1  0
 13 14  1  0
 14 15  2  0
 14 16  1  0
  6  7  1  0
  7  8  1  0
  8  9  2  0
  9 10  1  0
  9  1  1  0
  7  3  2  0
 16 17  1  0
M  END
> <minimizedAffinity>
-6.81082

> <CNNscore>
0.6419466138

> <CNNaffinity>
4.2009768486

> <CNN_VS>
2.6968028545

> <CNNaffinity_variance>
0.2862699330

$$$$



 17 18  0  0  0  0  0  0  0  0999 V2000
   14.2392    9.8328    6.2910 C   0  0  0  0  0  0  0  0  0  0  0  0
   14.1065   10.7212    5.2153 C   0  0  0  0  0  0  0  0  0  0  0  0
   15.2076   10.8587    4.3691 C   0  0  0  0  0  0  0  0  0  0  0  0
   15.2603   11.6722    3.2801 O   0  0  0  0  0  0  0  0  0  0  0  0
   16.4897   11.5180    2.7277 C   0  0  0  0  0  0  0  0  0  0  0  0
   17.2486   10.6164    3.4485 C   0  0  0  0  0  0  0  0  0  0  0  0
   16.4101   10.1825    4.5222 C   0  0  0  0  0  0  0  0  0  0  0  0
   16.5382    9.2925    5.6022 C   0  0  0  0  0  0  0  0  0  0  0  0
   15.4467    9.1317    6.4735 C   0  0  0  0  0  0  0  0  0  0  0  0
   15.6721    7.9155    7.9224 Br  0  0  0  0  0  0  0  0  0  0  0  0
   13.1738   10.4491    8.3418 C   0  0  0  0  0  0  0  0  0  0  0  0
   13.2464    9.5930    7.2090 O   0  0  0  0  0  0  0  0  0  0  0  0
   18.6498   10.1943    3.1605 C   0  0  0  0  0  0  0  0  0  0  0  0
   19.1457   10.6843    1.8210 C   0  0  0  0  0  0  0  0  0  0  0  0
   19.8646   11.6393    1.5823 O   0  0  0  0  0  0  0  0  0  0  0  0
   18.7030    9.9063    0.8087 O   0  0  0  0  0  0  0  0  0  0  0  0
   18.1503    9.1716    0.9896 H   0  0  0  0  0  0  0  0  0  0  0  0
 11 12  1  0
 12  1  1  0
  1  2  2  0
  2  3  1  0
  3  4  1  0
  4  5  1  0
  5  6  2  0
  6 13  1  0
 13 14  1  0
 14 15  2  0
 14 16  1  0
  6  7  1  0
  7  8  1  0
  8  9  2  0
  9 10  1  0
  9  1  1  0
  7  3  2  0
 16 17  1  0
M  END
> <minimizedAffinity>
-5.61979

> <CNNscore>
0.4389273226

> <CNNaffinity>
3.9774551392

> <CNN_VS>
1.7458137274

> <CNNaffinity_variance>
0.2871460021

$$$$



 17 18  0  0  0  0  0  0  0  0999 V2000
   15.2435    9.1767    7.3910 C   0  0  0  0  0  0  0  0  0  0  0  0
   16.2628    9.4030    6.4561 C   0  0  0  0  0  0  0  0  0  0  0  0
   15.9163    9.3091    5.1075 C   0  0  0  0  0  0  0  0  0  0  0  0
   16.7709    9.4953    4.0658 O   0  0  0  0  0  0  0  0  0  0  0  0
   16.0536    9.3225    2.9274 C   0  0  0  0  0  0  0  0  0  0  0  0
   14.7368    9.0164    3.2116 C   0  0  0  0  0  0  0  0  0  0  0  0
   14.6449    9.0091    4.6383 C   0  0  0  0  0  0  0  0  0  0  0  0
   13.6262    8.7834    5.5797 C   0  0  0  0  0  0  0  0  0  0  0  0
   13.9430    8.8703    6.9466 C   0  0  0  0  0  0  0  0  0  0  0  0
   12.5274    8.5536    8.1815 Br  0  0  0  0  0  0  0  0  0  0  0  0
   14.9579   10.3837    9.4360 C   0  0  0  0  0  0  0  0  0  0  0  0
   15.4299    9.2311    8.7505 O   0  0  0  0  0  0  0  0  0  0  0  0
   13.6481    8.7476    2.2282 C   0  0  0  0  0  0  0  0  0  0  0  0
   13.9427    7.5652    1.3365 C   0  0  0  0  0  0  0  0  0  0  0  0
   14.6523    7.5210    0.3464 O   0  0  0  0  0  0  0  0  0  0  0  0
   13.3126    6.4483    1.7625 O   0  0  0  0  0  0  0  0  0  0  0  0
   12.7666    6.4796    2.5233 H   0  0  0  0  0  0  0  0  0  0  0  0
 11 12  1  0
 12  1  1  0
  1  2  2  0
  2  3  1  0
  3  4  1  0
  4  5  1  0
  5  6  2  0
  6 13  1  0
 13 14  1  0
 14 15  2  0
 14 16  1  0
  6  7  1  0
  7  8  1  0
  8  9  2  0
  9 10  1  0
  9  1  1  0
  7  3  2  0
 16 17  1  0
M  END
> <minimizedAffinity>
-5.98501

> <CNNscore>
0.2747319043

> <CNNaffinity>
3.6760635376

> <CNN_VS>
1.0099319220

> <CNNaffinity_variance>
0.9705737233

$$$$



 17 18  0  0  0  0  0  0  0  0999 V2000
   15.1195    9.7739   -2.9767 C   0  0  0  0  0  0  0  0  0  0  0  0
   16.1698   10.0012   -2.0770 C   0  0  0  0  0  0  0  0  0  0  0  0
   15.8251   10.1984   -0.7392 C   0  0  0  0  0  0  0  0  0  0  0  0
   16.7073   10.4323    0.2694 O   0  0  0  0  0  0  0  0  0  0  0  0
   15.9828   10.5637    1.4088 C   0  0  0  0  0  0  0  0  0  0  0  0
   14.6315   10.4262    1.1569 C   0  0  0  0  0  0  0  0  0  0  0  0
   14.5267   10.1851   -0.2484 C   0  0  0  0  0  0  0  0  0  0  0  0
   13.4771    9.9565   -1.1544 C   0  0  0  0  0  0  0  0  0  0  0  0
   13.7912    9.7545   -2.5098 C   0  0  0  0  0  0  0  0  0  0  0  0
   12.3325    9.4508   -3.6968 Br  0  0  0  0  0  0  0  0  0  0  0  0
   14.9420   10.6198   -5.2068 C   0  0  0  0  0  0  0  0  0  0  0  0
   15.2994    9.5658   -4.3221 O   0  0  0  0  0  0  0  0  0  0  0  0
   13.5223   10.5163    2.1499 C   0  0  0  0  0  0  0  0  0  0  0  0
   13.1081    9.1681    2.6894 C   0  0  0  0  0  0  0  0  0  0  0  0
   13.4979    8.6027    3.6965 O   0  0  0  0  0  0  0  0  0  0  0  0
   12.1752    8.5815    1.9074 O   0  0  0  0  0  0  0  0  0  0  0  0
   11.8740    9.0142    1.1328 H   0  0  0  0  0  0  0  0  0  0  0  0
 11 12  1  0
 12  1  1  0
  1  2  2  0
  2  3  1  0
  3  4  1  0
  4  5  1  0
  5  6  2  0
  6 13  1  0
 13 14  1  0
 14 15  2  0
 14 16  1  0
  6  7  1  0
  7  8  1  0
  8  9  2  0
  9 10  1  0
  9  1  1  0
  7  3  2  0
 16 17  1  0
M  END
> <minimizedAffinity>
-6.51045

> <CNNscore>
0.2664052248

> <CNNaffinity>
3.9618721008

> <CNN_VS>
1.0554634333

> <CNNaffinity_variance>
0.4163393676

$$$$



 17 18  0  0  0  0  0  0  0  0999 V2000
   15.2114   10.0264   -2.4234 C   0  0  0  0  0  0  0  0  0  0  0  0
   16.4162   10.0775   -1.7092 C   0  0  0  0  0  0  0  0  0  0  0  0
   16.3242   10.1900   -0.3212 C   0  0  0  0  0  0  0  0  0  0  0  0
   17.3833   10.2538    0.5300 O   0  0  0  0  0  0  0  0  0  0  0  0
   16.8789   10.3532    1.7854 C   0  0  0  0  0  0  0  0  0  0  0  0
   15.4977   10.3635    1.7664 C   0  0  0  0  0  0  0  0  0  0  0  0
   15.1330   10.2548    0.3883 C   0  0  0  0  0  0  0  0  0  0  0  0
   13.9277   10.2029   -0.3324 C   0  0  0  0  0  0  0  0  0  0  0  0
   13.9861   10.0899   -1.7325 C   0  0  0  0  0  0  0  0  0  0  0  0
   12.3246   10.0257   -2.6623 Br  0  0  0  0  0  0  0  0  0  0  0  0
   14.6434    8.7016   -4.3320 C   0  0  0  0  0  0  0  0  0  0  0  0
   15.1393    9.9190   -3.7906 O   0  0  0  0  0  0  0  0  0  0  0  0
   14.5872   10.4701    2.9429 C   0  0  0  0  0  0  0  0  0  0  0  0
   15.0947   11.4310    3.9914 C   0  0  0  0  0  0  0  0  0  0  0  0
   15.4669   11.1870    5.1262 O   0  0  0  0  0  0  0  0  0  0  0  0
   15.1211   12.7022    3.5339 O   0  0  0  0  0  0  0  0  0  0  0  0
   14.8355   12.8923    2.6619 H   0  0  0  0  0  0  0  0  0  0  0  0
 11 12  1  0
 12  1  1  0
  1  2  2  0
  2  3  1  0
  3  4  1  0
  4  5  1  0
  5  6  2  0
  6 13  1  0
 13 14  1  0
 14 15  2  0
 14 16  1  0
  6  7  1  0
  7  8  1  0
  8  9  2  0
  9 10  1  0
  9  1  1  0
  7  3  2  0
 16 17  1  0
M  END
> <minimizedAffinity>
-6.09392

> <CNNscore>
0.2146487981

> <CNNaffinity>
3.6443574429

> <CNN_VS>
0.7822569609

> <CNNaffinity_variance>
0.8034783006

$$$$



 17 18  0  0  0  0  0  0  0  0999 V2000
   17.7912   19.9033   -7.6702 C   0  0  0  0  0  0  0  0  0  0  0  0
   18.1316   19.1000   -6.5734 C   0  0  0  0  0  0  0  0  0  0  0  0
   19.4223   18.5695   -6.5545 C   0  0  0  0  0  0  0  0  0  0  0  0
   19.9252   17.7710   -5.5749 O   0  0  0  0  0  0  0  0  0  0  0  0
   21.2027   17.4735   -5.9212 C   0  0  0  0  0  0  0  0  0  0  0  0
   21.5414   18.0628   -7.1238 C   0  0  0  0  0  0  0  0  0  0  0  0
   20.3777   18.7823   -7.5387 C   0  0  0  0  0  0  0  0  0  0  0  0
   20.0315   19.5887   -8.6363 C   0  0  0  0  0  0  0  0  0  0  0  0
   18.7383   20.1381   -8.6853 C   0  0  0  0  0  0  0  0  0  0  0  0
   18.3187   21.2219  -10.1948 Br  0  0  0  0  0  0  0  0  0  0  0  0
   15.4377   19.6389   -8.0043 C   0  0  0  0  0  0  0  0  0  0  0  0
   16.5612   20.4926   -7.8312 O   0  0  0  0  0  0  0  0  0  0  0  0
   22.8490   17.9603   -7.8339 C   0  0  0  0  0  0  0  0  0  0  0  0
   22.7990   17.0303   -9.0225 C   0  0  0  0  0  0  0  0  0  0  0  0
   23.3684   17.1397  -10.0947 O   0  0  0  0  0  0  0  0  0  0  0  0
   22.0115   15.9580   -8.7857 O   0  0  0  0  0  0  0  0  0  0  0  0
   21.5727   15.8717   -7.9623 H   0  0  0  0  0  0  0  0  0  0  0  0
 11 12  1  0
 12  1  1  0
  1  2  2  0
  2  3  1  0
  3  4  1  0
  4  5  1  0
  5  6  2  0
  6 13  1  0
 13 14  1  0
 14 15  2  0
 14 16  1  0
  6  7  1  0
  7  8  1  0
  8  9  2  0
  9 10  1  0
  9  1  1  0
  7  3  2  0
 16 17  1  0
M  END
> <minimizedAffinity>
-3.96379

> <CNNscore>
0.2099554241

> <CNNaffinity>
3.1802845001

> <CNN_VS>
0.6677179933

> <CNNaffinity_variance>
0.4345547855

$$$$



 17 18  0  0  0  0  0  0  0  0999 V2000
   13.3292    9.0050    6.8667 C   0  0  0  0  0  0  0  0  0  0  0  0
   13.1023    8.4380    5.6053 C   0  0  0  0  0  0  0  0  0  0  0  0
   13.8922    8.9016    4.5523 C   0  0  0  0  0  0  0  0  0  0  0  0
   13.8119    8.4689    3.2652 O   0  0  0  0  0  0  0  0  0  0  0  0
   14.7424    9.1557    2.5561 C   0  0  0  0  0  0  0  0  0  0  0  0
   15.4282   10.0419    3.3640 C   0  0  0  0  0  0  0  0  0  0  0  0
   14.8742    9.8754    4.6714 C   0  0  0  0  0  0  0  0  0  0  0  0
   15.0981   10.4405    5.9384 C   0  0  0  0  0  0  0  0  0  0  0  0
   14.3184    9.9953    7.0202 C   0  0  0  0  0  0  0  0  0  0  0  0
   14.6597   10.7944    8.7155 Br  0  0  0  0  0  0  0  0  0  0  0  0
   12.8167    9.4510    9.1600 C   0  0  0  0  0  0  0  0  0  0  0  0
   12.6318    8.6549    7.9967 O   0  0  0  0  0  0  0  0  0  0  0  0
   16.5147   10.9753    2.9482 C   0  0  0  0  0  0  0  0  0  0  0  0
   16.4663   12.2944    3.6815 C   0  0  0  0  0  0  0  0  0  0  0  0
   17.3472   12.8348    4.3278 O   0  0  0  0  0  0  0  0  0  0  0  0
   15.2646   12.8975    3.5471 O   0  0  0  0  0  0  0  0  0  0  0  0
   14.5858   12.4841    3.0508 H   0  0  0  0  0  0  0  0  0  0  0  0
 11 12  1  0
 12  1  1  0
  1  2  2  0
  2  3  1  0
  3  4  1  0
  4  5  1  0
  5  6  2  0
  6 13  1  0
 13 14  1  0
 14 15  2  0
 14 16  1  0
  6  7  1  0
  7  8  1  0
  8  9  2  0
  9 10  1  0
  9  1  1  0
  7  3  2  0
 16 17  1  0
M  END
> <minimizedAffinity>
-4.82146

> <CNNscore>
0.1996056288

> <CNNaffinity>
3.8242614269

> <CNN_VS>
0.7633441091

> <CNNaffinity_variance>
0.6025103927

$$$$



 17 18  0  0  0  0  0  0  0  0999 V2000
   15.7884   20.4694   -6.1845 C   0  0  0  0  0  0  0  0  0  0  0  0
   16.0762   21.1281   -4.9814 C   0  0  0  0  0  0  0  0  0  0  0  0
   17.3429   20.9200   -4.4339 C   0  0  0  0  0  0  0  0  0  0  0  0
   17.7953   21.4738   -3.2768 O   0  0  0  0  0  0  0  0  0  0  0  0
   19.0647   21.0317   -3.0941 C   0  0  0  0  0  0  0  0  0  0  0  0
   19.4481   20.1856   -4.1166 C   0  0  0  0  0  0  0  0  0  0  0  0
   18.3228   20.1130   -4.9955 C   0  0  0  0  0  0  0  0  0  0  0  0
   18.0294   19.4550   -6.2020 C   0  0  0  0  0  0  0  0  0  0  0  0
   16.7615   19.6436   -6.7794 C   0  0  0  0  0  0  0  0  0  0  0  0
   16.4133   18.7279   -8.4132 Br  0  0  0  0  0  0  0  0  0  0  0  0
   14.2403   21.8390   -7.3879 C   0  0  0  0  0  0  0  0  0  0  0  0
   14.5872   20.5729   -6.8421 O   0  0  0  0  0  0  0  0  0  0  0  0
   20.7619   19.4948   -4.2616 C   0  0  0  0  0  0  0  0  0  0  0  0
   20.7710   18.1173   -3.6430 C   0  0  0  0  0  0  0  0  0  0  0  0
   19.8750   17.5512   -3.0409 O   0  0  0  0  0  0  0  0  0  0  0  0
   21.9532   17.4912   -3.8335 O   0  0  0  0  0  0  0  0  0  0  0  0
   22.6435   17.9243   -4.2961 H   0  0  0  0  0  0  0  0  0  0  0  0
 11 12  1  0
 12  1  1  0
  1  2  2  0
  2  3  1  0
  3  4  1  0
  4  5  1  0
  5  6  2  0
  6 13  1  0
 13 14  1  0
 14 15  2  0
 14 16  1  0
  6  7  1  0
  7  8  1  0
  8  9  2  0
  9 10  1  0
  9  1  1  0
  7  3  2  0
 16 17  1  0
M  END
> <minimizedAffinity>
-4.99685

> <CNNscore>
0.1849295795

> <CNNaffinity>
2.9172496796

> <CNN_VS>
0.5394857526

> <CNNaffinity_variance>
0.5763012767

$$$$
