


 17 17  0  0  0  0  0  0  0  0999 V2000
   77.9562   26.9339   41.9322 C   0  0  0  0  0  0  0  0  0  0  0  0
   76.4381   29.5397   40.5166 C   0  0  0  0  0  0  0  0  0  0  0  0
   76.9454   28.2703   39.9601 C   0  0  0  0  0  0  0  0  0  0  0  0
   76.7806   28.0942   38.6174 O   0  0  0  0  0  0  0  0  0  0  0  0
   77.3053   26.8620   38.2482 N   0  0  0  0  0  0  0  0  0  0  0  0
   77.7632   26.3518   39.3831 C   0  0  0  0  0  0  0  0  0  0  0  0
   78.3131   25.1399   39.3026 O   0  0  0  0  0  0  0  0  0  0  0  0
   77.5745   27.1670   40.5073 C   0  0  0  0  0  0  0  0  0  0  0  0
   78.3739   24.7071   38.4738 H   0  0  0  0  0  0  0  0  0  0  0  0
   77.1488   25.8609   42.6832 C   0  0  0  0  0  0  0  0  0  0  0  0
   76.5680   24.8473   41.7678 N   0  0  0  0  0  0  0  0  0  0  0  0
   75.8919   25.2954   41.1493 H   0  0  0  0  0  0  0  0  0  0  0  0
   76.1012   24.1234   42.3142 H   0  0  0  0  0  0  0  0  0  0  0  0
   76.0639   26.4630   43.5807 C   0  0  0  0  0  0  0  0  0  0  0  0
   75.8535   26.1800   44.7510 O   0  0  0  0  0  0  0  0  0  0  0  0
   75.3500   27.4374   42.9812 O   0  0  0  0  0  0  0  0  0  0  0  0
   75.5128   27.6530   42.0840 H   0  0  0  0  0  0  0  0  0  0  0  0
  2  3  1  0
  3  4  1  0
  4  5  1  0
  5  6  2  0
  6  7  1  0
  6  8  1  0
  8  1  1  0
  1 10  1  0
 10 11  1  0
 10 14  1  0
 14 15  2  0
 14 16  1  0
  8  3  2  0
  7  9  1  0
 11 12  1  0
 11 13  1  0
 16 17  1  0
M  END
> <minimizedAffinity>
-8.28047

> <CNNscore>
0.7940767407

> <CNNaffinity>
5.4039969444

> <CNN_VS>
4.2911882401

> <CNNaffinity_variance>
0.3326760828

$$$$



 17 17  0  0  0  0  0  0  0  0999 V2000
   85.4710   36.1930   38.5015 C   0  0  0  0  0  0  0  0  0  0  0  0
   85.9684   38.8172   40.4929 C   0  0  0  0  0  0  0  0  0  0  0  0
   84.7884   38.3664   39.7293 C   0  0  0  0  0  0  0  0  0  0  0  0
   83.6725   39.1444   39.8326 O   0  0  0  0  0  0  0  0  0  0  0  0
   82.6559   38.5933   39.0626 N   0  0  0  0  0  0  0  0  0  0  0  0
   83.2041   37.5100   38.5298 C   0  0  0  0  0  0  0  0  0  0  0  0
   82.4141   36.7777   37.7441 O   0  0  0  0  0  0  0  0  0  0  0  0
   84.5380   37.2894   38.8986 C   0  0  0  0  0  0  0  0  0  0  0  0
   81.5320   37.0494   37.5829 H   0  0  0  0  0  0  0  0  0  0  0  0
   85.3333   34.8716   39.2773 C   0  0  0  0  0  0  0  0  0  0  0  0
   83.9192   34.4426   39.4156 N   0  0  0  0  0  0  0  0  0  0  0  0
   83.4096   35.1265   39.9750 H   0  0  0  0  0  0  0  0  0  0  0  0
   83.8834   33.5327   39.8754 H   0  0  0  0  0  0  0  0  0  0  0  0
   86.0196   34.9194   40.6455 C   0  0  0  0  0  0  0  0  0  0  0  0
   85.5914   34.4438   41.6869 O   0  0  0  0  0  0  0  0  0  0  0  0
   87.2371   35.4983   40.6162 O   0  0  0  0  0  0  0  0  0  0  0  0
   87.5636   35.8624   39.8169 H   0  0  0  0  0  0  0  0  0  0  0  0
  2  3  1  0
  3  4  1  0
  4  5  1  0
  5  6  2  0
  6  7  1  0
  6  8  1  0
  8  1  1  0
  1 10  1  0
 10 11  1  0
 10 14  1  0
 14 15  2  0
 14 16  1  0
  8  3  2  0
  7  9  1  0
 11 12  1  0
 11 13  1  0
 16 17  1  0
M  END
> <minimizedAffinity>
-4.70101

> <CNNscore>
0.5010649562

> <CNNaffinity>
3.5144062042

> <CNN_VS>
1.7609457970

> <CNNaffinity_variance>
0.1221696734

$$$$



 17 17  0  0  0  0  0  0  0  0999 V2000
   77.5196   27.3943   41.5066 C   0  0  0  0  0  0  0  0  0  0  0  0
   78.3183   25.7251   38.7363 C   0  0  0  0  0  0  0  0  0  0  0  0
   77.5384   26.9588   38.9558 C   0  0  0  0  0  0  0  0  0  0  0  0
   77.0327   27.5569   37.8388 O   0  0  0  0  0  0  0  0  0  0  0  0
   76.3289   28.6966   38.2071 N   0  0  0  0  0  0  0  0  0  0  0  0
   76.4408   28.7337   39.5277 C   0  0  0  0  0  0  0  0  0  0  0  0
   75.8538   29.7634   40.1382 O   0  0  0  0  0  0  0  0  0  0  0  0
   77.1873   27.6840   40.0798 C   0  0  0  0  0  0  0  0  0  0  0  0
   75.3813   30.3982   39.6365 H   0  0  0  0  0  0  0  0  0  0  0  0
   76.5096   26.5239   42.2744 C   0  0  0  0  0  0  0  0  0  0  0  0
   75.6344   27.3265   43.1648 N   0  0  0  0  0  0  0  0  0  0  0  0
   76.2001   27.7683   43.8894 H   0  0  0  0  0  0  0  0  0  0  0  0
   74.9409   26.7174   43.5989 H   0  0  0  0  0  0  0  0  0  0  0  0
   77.1838   25.3928   43.0563 C   0  0  0  0  0  0  0  0  0  0  0  0
   77.3630   25.3553   44.2648 O   0  0  0  0  0  0  0  0  0  0  0  0
   77.5311   24.3408   42.2876 O   0  0  0  0  0  0  0  0  0  0  0  0
   77.3929   24.3714   41.3614 H   0  0  0  0  0  0  0  0  0  0  0  0
  2  3  1  0
  3  4  1  0
  4  5  1  0
  5  6  2  0
  6  7  1  0
  6  8  1  0
  8  1  1  0
  1 10  1  0
 10 11  1  0
 10 14  1  0
 14 15  2  0
 14 16  1  0
  8  3  2  0
  7  9  1  0
 11 12  1  0
 11 13  1  0
 16 17  1  0
M  END
> <minimizedAffinity>
-7.84090

> <CNNscore>
0.4974445701

> <CNNaffinity>
5.1377043724

> <CNN_VS>
2.5557231903

> <CNNaffinity_variance>
0.1038256511

$$$$



 17 17  0  0  0  0  0  0  0  0999 V2000
   85.4624   36.4118   38.5054 C   0  0  0  0  0  0  0  0  0  0  0  0
   86.3491   38.8168   40.6335 C   0  0  0  0  0  0  0  0  0  0  0  0
   85.0957   38.5630   39.8965 C   0  0  0  0  0  0  0  0  0  0  0  0
   84.0877   39.4598   40.0981 O   0  0  0  0  0  0  0  0  0  0  0  0
   82.9838   39.0875   39.3412 N   0  0  0  0  0  0  0  0  0  0  0  0
   83.3758   37.9852   38.7175 C   0  0  0  0  0  0  0  0  0  0  0  0
   82.4740   37.4074   37.9235 O   0  0  0  0  0  0  0  0  0  0  0  0
   84.6854   37.5823   39.0119 C   0  0  0  0  0  0  0  0  0  0  0  0
   81.6263   37.7927   37.8191 H   0  0  0  0  0  0  0  0  0  0  0  0
   85.3377   35.1122   39.3194 C   0  0  0  0  0  0  0  0  0  0  0  0
   86.6450   34.4345   39.5052 N   0  0  0  0  0  0  0  0  0  0  0  0
   87.0068   34.1392   38.5984 H   0  0  0  0  0  0  0  0  0  0  0  0
   86.5226   33.6183   40.1046 H   0  0  0  0  0  0  0  0  0  0  0  0
   84.3072   34.1456   38.7286 C   0  0  0  0  0  0  0  0  0  0  0  0
   84.2853   32.9325   38.8759 O   0  0  0  0  0  0  0  0  0  0  0  0
   83.3217   34.7622   38.0453 O   0  0  0  0  0  0  0  0  0  0  0  0
   83.3402   35.6924   37.9334 H   0  0  0  0  0  0  0  0  0  0  0  0
  2  3  1  0
  3  4  1  0
  4  5  1  0
  5  6  2  0
  6  7  1  0
  6  8  1  0
  8  1  1  0
  1 10  1  0
 10 11  1  0
 10 14  1  0
 14 15  2  0
 14 16  1  0
  8  3  2  0
  7  9  1  0
 11 12  1  0
 11 13  1  0
 16 17  1  0
M  END
> <minimizedAffinity>
-4.31501

> <CNNscore>
0.4163847268

> <CNNaffinity>
3.5326156616

> <CNN_VS>
1.4709272385

> <CNNaffinity_variance>
0.9161693454

$$$$



 17 17  0  0  0  0  0  0  0  0999 V2000
   87.2621   35.2046   42.0499 C   0  0  0  0  0  0  0  0  0  0  0  0
   87.7098   37.2775   44.6193 C   0  0  0  0  0  0  0  0  0  0  0  0
   86.6429   36.3060   44.3083 C   0  0  0  0  0  0  0  0  0  0  0  0
   85.6326   36.2105   45.2200 O   0  0  0  0  0  0  0  0  0  0  0  0
   84.7133   35.2624   44.7887 N   0  0  0  0  0  0  0  0  0  0  0  0
   85.2094   34.8305   43.6376 C   0  0  0  0  0  0  0  0  0  0  0  0
   84.5083   33.8830   43.0143 O   0  0  0  0  0  0  0  0  0  0  0  0
   86.4201   35.4287   43.2627 C   0  0  0  0  0  0  0  0  0  0  0  0
   83.7054   33.5739   43.3854 H   0  0  0  0  0  0  0  0  0  0  0  0
   86.7334   35.8076   40.7369 C   0  0  0  0  0  0  0  0  0  0  0  0
   85.7915   36.9307   40.9701 N   0  0  0  0  0  0  0  0  0  0  0  0
   84.9607   36.5836   41.4496 H   0  0  0  0  0  0  0  0  0  0  0  0
   85.5218   37.3396   40.0755 H   0  0  0  0  0  0  0  0  0  0  0  0
   86.1035   34.7559   39.8191 C   0  0  0  0  0  0  0  0  0  0  0  0
   86.6685   34.1450   38.9239 O   0  0  0  0  0  0  0  0  0  0  0  0
   84.8193   34.4779   40.1223 O   0  0  0  0  0  0  0  0  0  0  0  0
   84.3878   34.9473   40.8089 H   0  0  0  0  0  0  0  0  0  0  0  0
  2  3  1  0
  3  4  1  0
  4  5  1  0
  5  6  2  0
  6  7  1  0
  6  8  1  0
  8  1  1  0
  1 10  1  0
 10 11  1  0
 10 14  1  0
 14 15  2  0
 14 16  1  0
  8  3  2  0
  7  9  1  0
 11 12  1  0
 11 13  1  0
 16 17  1  0
M  END
> <minimizedAffinity>
-4.19192

> <CNNscore>
0.3688917160

> <CNNaffinity>
3.1861667633

> <CNN_VS>
1.1753505468

> <CNNaffinity_variance>
0.4736038148

$$$$



 17 17  0  0  0  0  0  0  0  0999 V2000
   72.6165   16.9477   47.9029 C   0  0  0  0  0  0  0  0  0  0  0  0
   73.5711   16.4568   44.7490 C   0  0  0  0  0  0  0  0  0  0  0  0
   72.3329   17.0102   45.3314 C   0  0  0  0  0  0  0  0  0  0  0  0
   71.3756   17.4057   44.4435 O   0  0  0  0  0  0  0  0  0  0  0  0
   70.2796   17.8995   45.1399 N   0  0  0  0  0  0  0  0  0  0  0  0
   70.6245   17.7787   46.4144 C   0  0  0  0  0  0  0  0  0  0  0  0
   69.7319   18.2067   47.3075 O   0  0  0  0  0  0  0  0  0  0  0  0
   71.8984   17.2341   46.6251 C   0  0  0  0  0  0  0  0  0  0  0  0
   68.9095   18.5515   47.0198 H   0  0  0  0  0  0  0  0  0  0  0  0
   73.1776   15.5238   48.0605 C   0  0  0  0  0  0  0  0  0  0  0  0
   72.4860   14.7591   49.1281 N   0  0  0  0  0  0  0  0  0  0  0  0
   72.6541   15.2057   50.0296 H   0  0  0  0  0  0  0  0  0  0  0  0
   72.8448   13.8045   49.1494 H   0  0  0  0  0  0  0  0  0  0  0  0
   74.6929   15.5107   48.2817 C   0  0  0  0  0  0  0  0  0  0  0  0
   75.4860   16.3629   47.9093 O   0  0  0  0  0  0  0  0  0  0  0  0
   75.1194   14.4655   49.0192 O   0  0  0  0  0  0  0  0  0  0  0  0
   74.5099   13.8131   49.3037 H   0  0  0  0  0  0  0  0  0  0  0  0
  2  3  1  0
  3  4  1  0
  4  5  1  0
  5  6  2  0
  6  7  1  0
  6  8  1  0
  8  1  1  0
  1 10  1  0
 10 11  1  0
 10 14  1  0
 14 15  2  0
 14 16  1  0
  8  3  2  0
  7  9  1  0
 11 12  1  0
 11 13  1  0
 16 17  1  0
M  END
> <minimizedAffinity>
-4.03854

> <CNNscore>
0.3359951973

> <CNNaffinity>
3.6509397030

> <CNN_VS>
1.2266981602

> <CNNaffinity_variance>
0.0908185616

$$$$



 17 17  0  0  0  0  0  0  0  0999 V2000
   73.0192   16.0314   45.4916 C   0  0  0  0  0  0  0  0  0  0  0  0
   70.6948   16.3300   43.1236 C   0  0  0  0  0  0  0  0  0  0  0  0
   71.6853   17.2832   43.6610 C   0  0  0  0  0  0  0  0  0  0  0  0
   71.6785   18.5313   43.1104 O   0  0  0  0  0  0  0  0  0  0  0  0
   72.6594   19.3059   43.7170 N   0  0  0  0  0  0  0  0  0  0  0  0
   73.2118   18.4915   44.6054 C   0  0  0  0  0  0  0  0  0  0  0  0
   74.2135   18.9989   45.3243 O   0  0  0  0  0  0  0  0  0  0  0  0
   72.6646   17.2017   44.6342 C   0  0  0  0  0  0  0  0  0  0  0  0
   74.4767   19.8893   45.1980 H   0  0  0  0  0  0  0  0  0  0  0  0
   72.4045   16.0135   46.9018 C   0  0  0  0  0  0  0  0  0  0  0  0
   70.9556   16.3350   46.8906 N   0  0  0  0  0  0  0  0  0  0  0  0
   70.8220   17.2910   46.5612 H   0  0  0  0  0  0  0  0  0  0  0  0
   70.5801   16.2450   47.8347 H   0  0  0  0  0  0  0  0  0  0  0  0
   73.1523   16.9239   47.8802 C   0  0  0  0  0  0  0  0  0  0  0  0
   72.6734   17.4906   48.8515 O   0  0  0  0  0  0  0  0  0  0  0  0
   74.4735   17.0154   47.6266 O   0  0  0  0  0  0  0  0  0  0  0  0
   74.8388   16.5802   46.8815 H   0  0  0  0  0  0  0  0  0  0  0  0
  2  3  1  0
  3  4  1  0
  4  5  1  0
  5  6  2  0
  6  7  1  0
  6  8  1  0
  8  1  1  0
  1 10  1  0
 10 11  1  0
 10 14  1  0
 14 15  2  0
 14 16  1  0
  8  3  2  0
  7  9  1  0
 11 12  1  0
 11 13  1  0
 16 17  1  0
M  END
> <minimizedAffinity>
-5.15364

> <CNNscore>
0.3009622097

> <CNNaffinity>
3.4164292812

> <CNN_VS>
1.0282161236

> <CNNaffinity_variance>
0.1698448211

$$$$



 17 17  0  0  0  0  0  0  0  0999 V2000
   71.3162   16.5388   45.5051 C   0  0  0  0  0  0  0  0  0  0  0  0
   72.6634   19.2607   44.1357 C   0  0  0  0  0  0  0  0  0  0  0  0
   71.5851   18.3591   43.6854 C   0  0  0  0  0  0  0  0  0  0  0  0
   71.0072   18.6644   42.4880 O   0  0  0  0  0  0  0  0  0  0  0  0
   70.0186   17.7306   42.2041 N   0  0  0  0  0  0  0  0  0  0  0  0
   70.0456   16.9049   43.2411 C   0  0  0  0  0  0  0  0  0  0  0  0
   69.1618   15.9069   43.2205 O   0  0  0  0  0  0  0  0  0  0  0  0
   70.9955   17.2279   44.2195 C   0  0  0  0  0  0  0  0  0  0  0  0
   68.5804   15.8109   42.4920 H   0  0  0  0  0  0  0  0  0  0  0  0
   72.8085   16.4356   45.8648 C   0  0  0  0  0  0  0  0  0  0  0  0
   73.3000   15.0354   45.8396 N   0  0  0  0  0  0  0  0  0  0  0  0
   72.8214   14.4940   46.5594 H   0  0  0  0  0  0  0  0  0  0  0  0
   74.3044   15.0243   46.0174 H   0  0  0  0  0  0  0  0  0  0  0  0
   73.1371   17.0994   47.2052 C   0  0  0  0  0  0  0  0  0  0  0  0
   74.2540   17.3439   47.6371 O   0  0  0  0  0  0  0  0  0  0  0  0
   72.0450   17.4838   47.8966 O   0  0  0  0  0  0  0  0  0  0  0  0
   71.1896   17.2954   47.5639 H   0  0  0  0  0  0  0  0  0  0  0  0
  2  3  1  0
  3  4  1  0
  4  5  1  0
  5  6  2  0
  6  7  1  0
  6  8  1  0
  8  1  1  0
  1 10  1  0
 10 11  1  0
 10 14  1  0
 14 15  2  0
 14 16  1  0
  8  3  2  0
  7  9  1  0
 11 12  1  0
 11 13  1  0
 16 17  1  0
M  END
> <minimizedAffinity>
-4.37232

> <CNNscore>
0.2475828230

> <CNNaffinity>
3.1844494343

> <CNN_VS>
0.7884149551

> <CNNaffinity_variance>
0.5146759152

$$$$



 17 17  0  0  0  0  0  0  0  0999 V2000
   82.8404   36.0383   31.3961 C   0  0  0  0  0  0  0  0  0  0  0  0
   82.4907   38.4379   29.1116 C   0  0  0  0  0  0  0  0  0  0  0  0
   81.9036   38.2591   30.4540 C   0  0  0  0  0  0  0  0  0  0  0  0
   81.0526   39.2394   30.8732 O   0  0  0  0  0  0  0  0  0  0  0  0
   80.5864   38.9297   32.1447 N   0  0  0  0  0  0  0  0  0  0  0  0
   81.1757   37.7778   32.4340 C   0  0  0  0  0  0  0  0  0  0  0  0
   80.9016   37.2625   33.6328 O   0  0  0  0  0  0  0  0  0  0  0  0
   82.0226   37.2875   31.4309 C   0  0  0  0  0  0  0  0  0  0  0  0
   80.3083   37.7042   34.2080 H   0  0  0  0  0  0  0  0  0  0  0  0
   83.9927   35.9542   32.4120 C   0  0  0  0  0  0  0  0  0  0  0  0
   84.1751   37.2199   33.1654 N   0  0  0  0  0  0  0  0  0  0  0  0
   84.4500   37.9620   32.5218 H   0  0  0  0  0  0  0  0  0  0  0  0
   84.9019   37.0944   33.8700 H   0  0  0  0  0  0  0  0  0  0  0  0
   85.3111   35.5130   31.7698 C   0  0  0  0  0  0  0  0  0  0  0  0
   86.2511   34.9794   32.3404 O   0  0  0  0  0  0  0  0  0  0  0  0
   85.3481   35.7009   30.4350 O   0  0  0  0  0  0  0  0  0  0  0  0
   84.6265   36.1101   29.9993 H   0  0  0  0  0  0  0  0  0  0  0  0
  2  3  1  0
  3  4  1  0
  4  5  1  0
  5  6  2  0
  6  7  1  0
  6  8  1  0
  8  1  1  0
  1 10  1  0
 10 11  1  0
 10 14  1  0
 14 15  2  0
 14 16  1  0
  8  3  2  0
  7  9  1  0
 11 12  1  0
 11 13  1  0
 16 17  1  0
M  END
> <minimizedAffinity>
-4.00610

> <CNNscore>
0.2366399020

> <CNNaffinity>
3.2085409164

> <CNN_VS>
0.7592688203

> <CNNaffinity_variance>
0.2151676416

$$$$
