


 49 52  0  0  0  0  0  0  0  0999 V2000
   45.1185   14.1004    1.0595 C   0  0  0  0  0  0  0  0  0  0  0  0
   45.6439   14.3702    2.3092 C   0  0  0  0  0  0  0  0  0  0  0  0
   46.5302   13.0181    2.8927 S   0  0  0  0  0  0  0  0  0  0  0  0
   46.1656   12.0534    1.5169 C   0  0  0  0  0  0  0  0  0  0  0  0
   45.3611   12.7587    0.6448 C   0  0  0  0  0  0  0  0  0  0  0  0
   44.6133   12.0737   -0.9612 Br  0  0  0  0  0  0  0  0  0  0  0  0
   46.7332   10.6993    1.4262 C   0  0  0  0  0  0  0  0  0  0  0  0
   46.4262    9.8832    0.3319 C   0  0  0  0  0  0  0  0  0  0  0  0
   46.9515    8.5971    0.2420 C   0  0  0  0  0  0  0  0  0  0  0  0
   47.8198    8.1296    1.2288 C   0  0  0  0  0  0  0  0  0  0  0  0
   48.2019    8.9403    2.3068 C   0  0  0  0  0  0  0  0  0  0  0  0
   47.6052   10.2045    2.4152 C   0  0  0  0  0  0  0  0  0  0  0  0
   49.0657    8.3999    3.2709 N   0  0  0  0  0  0  0  0  0  0  0  0
   49.1258    8.8073    4.1651 H   0  0  0  0  0  0  0  0  0  0  0  0
   49.8823    7.2202    2.9392 C   0  0  0  0  0  0  0  0  0  0  0  0
   51.3622    7.5010    3.2395 C   0  0  0  0  0  0  0  0  0  0  0  0
   51.8000    6.9026    4.5711 C   0  0  0  0  0  0  0  0  0  0  0  0
   51.6059    5.4343    4.5578 N   0  0  0  0  0  0  0  0  0  0  0  0
   50.4199    4.9301    3.8313 C   0  0  0  0  0  0  0  0  0  0  0  0
   49.3563    6.0120    3.7272 C   0  0  0  0  0  0  0  0  0  0  0  0
   52.1542    4.5500    5.9042 S   0  0  0  0  0  0  0  0  0  0  0  0
   51.5209    5.1248    7.0734 O   0  0  0  0  0  0  0  0  0  0  0  0
   53.5964    4.4714    5.7837 O   0  0  0  0  0  0  0  0  0  0  0  0
   51.4419    2.9233    5.5855 C   0  0  0  0  0  0  0  0  0  0  0  0
   52.5463    1.9158    5.4029 C   0  0  0  0  0  0  0  0  0  0  0  0
   53.0348    1.1912    6.5003 C   0  0  0  0  0  0  0  0  0  0  0  0
   54.0598    0.2591    6.3353 C   0  0  0  0  0  0  0  0  0  0  0  0
   54.6058    0.0418    5.0728 C   0  0  0  0  0  0  0  0  0  0  0  0
   54.1217    0.7484    3.9736 C   0  0  0  0  0  0  0  0  0  0  0  0
   53.0962    1.6805    4.1354 C   0  0  0  0  0  0  0  0  0  0  0  0
   45.5806   15.5436    3.1497 C   0  0  0  0  0  0  0  0  0  0  0  0
   44.7139   15.8531    3.9571 O   0  0  0  0  0  0  0  0  0  0  0  0
   46.6438   16.3615    2.9922 O   0  0  0  0  0  0  0  0  0  0  0  0
   47.3173   16.1416    2.3790 H   0  0  0  0  0  0  0  0  0  0  0  0
   44.3904   15.0024    0.3533 O   0  0  0  0  0  0  0  0  0  0  0  0
   44.3208   14.6291   -1.0327 C   0  0  0  0  0  0  0  0  0  0  0  0
   43.5367   15.7071   -1.7840 C   0  0  0  0  0  0  0  0  0  0  0  0
   43.5743   15.6112   -3.3287 C   0  0  0  0  0  0  0  0  0  0  0  0
   42.3054   14.8700   -3.8283 C   0  0  0  0  0  0  0  0  0  0  0  0
   44.7846   14.7806   -3.7966 C   0  0  0  0  0  0  0  0  0  0  0  0
   43.5484   17.0176   -4.0262 C   0  0  0  0  0  0  0  0  0  0  0  0
   44.7791   17.9881   -4.1152 C   0  0  0  0  0  0  0  0  0  0  0  0
   46.1359   17.2957   -4.2453 C   0  0  0  0  0  0  0  0  0  0  0  0
   44.8246   18.8456   -2.8185 C   0  0  0  0  0  0  0  0  0  0  0  0
   44.5368   19.0232   -5.2860 C   0  0  0  0  0  0  0  0  0  0  0  0
   46.8898   18.5837   -6.0153 C   0  0  0  0  0  0  0  0  0  0  0  0
   45.5960   19.3492   -6.3932 C   0  0  0  0  0  0  0  0  0  0  0  0
   45.9598   20.8344   -6.5026 C   0  0  0  0  0  0  0  0  0  0  0  0
   45.1663   18.8325   -7.7802 C   0  0  0  0  0  0  0  0  0  0  0  0
 46 47  1  0
 47 48  1  0
 47 49  1  0
 47 45  1  0
 45 42  1  0
 42 43  1  0
 42 44  1  0
 42 41  1  0
 41 38  1  0
 38 39  1  0
 38 40  1  0
 38 37  1  0
 37 36  1  0
 36 35  1  0
 35  1  1  0
  1  2  2  0
  2 31  1  0
 31 32  2  0
 31 33  1  0
  2  3  1  0
  3  4  1  0
  4  7  1  0
  7  8  2  0
  8  9  1  0
  9 10  2  0
 10 11  1  0
 11 13  1  0
 13 15  1  0
 15 16  1  0
 16 17  1  0
 17 18  1  0
 18 21  1  0
 21 22  2  0
 21 23  2  0
 21 24  1  0
 24 25  1  0
 25 26  2  0
 26 27  1  0
 27 28  2  0
 28 29  1  0
 29 30  2  0
 18 19  1  0
 19 20  1  0
 11 12  2  0
  4  5  2  0
  5  6  1  0
  5  1  1  0
 12  7  1  0
 20 15  1  0
 30 25  1  0
 33 34  1  0
 13 14  1  0
M  END
> <minimizedAffinity>
-7.61097

> <CNNscore>
0.2532827854

> <CNNaffinity>
6.8115172386

> <CNN_VS>
1.7252401114

> <CNNaffinity_variance>
0.0945088491

$$$$



 49 52  0  0  0  0  0  0  0  0999 V2000
   44.7602   14.5473    1.0183 C   0  0  0  0  0  0  0  0  0  0  0  0
   45.4085   14.8276    2.2064 C   0  0  0  0  0  0  0  0  0  0  0  0
   46.4989   13.5613    2.6087 S   0  0  0  0  0  0  0  0  0  0  0  0
   46.0662   12.6133    1.2410 C   0  0  0  0  0  0  0  0  0  0  0  0
   45.0879   13.2569    0.5101 C   0  0  0  0  0  0  0  0  0  0  0  0
   44.2188   12.5528   -1.0249 Br  0  0  0  0  0  0  0  0  0  0  0  0
   46.7570   11.3346    1.0138 C   0  0  0  0  0  0  0  0  0  0  0  0
   46.6992   10.7211   -0.2424 C   0  0  0  0  0  0  0  0  0  0  0  0
   47.3424    9.5065   -0.4643 C   0  0  0  0  0  0  0  0  0  0  0  0
   48.0811    8.9131    0.5597 C   0  0  0  0  0  0  0  0  0  0  0  0
   48.2157    9.5286    1.8120 C   0  0  0  0  0  0  0  0  0  0  0  0
   47.5014   10.7143    2.0358 C   0  0  0  0  0  0  0  0  0  0  0  0
   48.9600    8.8677    2.8005 N   0  0  0  0  0  0  0  0  0  0  0  0
   49.1892    9.3301    3.6389 H   0  0  0  0  0  0  0  0  0  0  0  0
   49.3968    7.4791    2.5781 C   0  0  0  0  0  0  0  0  0  0  0  0
   50.9213    7.4275    2.3983 C   0  0  0  0  0  0  0  0  0  0  0  0
   51.6346    6.9997    3.6754 C   0  0  0  0  0  0  0  0  0  0  0  0
   51.1763    5.6531    4.0879 N   0  0  0  0  0  0  0  0  0  0  0  0
   49.7504    5.3380    3.8510 C   0  0  0  0  0  0  0  0  0  0  0  0
   48.9287    6.6143    3.7573 C   0  0  0  0  0  0  0  0  0  0  0  0
   51.9439    4.9288    5.4226 S   0  0  0  0  0  0  0  0  0  0  0  0
   51.0409    5.0542    6.5484 O   0  0  0  0  0  0  0  0  0  0  0  0
   53.2887    5.4677    5.4647 O   0  0  0  0  0  0  0  0  0  0  0  0
   52.0123    3.2006    4.9092 C   0  0  0  0  0  0  0  0  0  0  0  0
   50.8437    2.4533    5.4957 C   0  0  0  0  0  0  0  0  0  0  0  0
   50.8401    2.0922    6.8512 C   0  0  0  0  0  0  0  0  0  0  0  0
   49.7605    1.3973    7.3973 C   0  0  0  0  0  0  0  0  0  0  0  0
   48.6744    1.0574    6.5946 C   0  0  0  0  0  0  0  0  0  0  0  0
   48.6623    1.4196    5.2492 C   0  0  0  0  0  0  0  0  0  0  0  0
   49.7402    2.1152    4.7006 C   0  0  0  0  0  0  0  0  0  0  0  0
   45.3292   15.9551    3.1062 C   0  0  0  0  0  0  0  0  0  0  0  0
   45.8457   17.0587    2.9876 O   0  0  0  0  0  0  0  0  0  0  0  0
   44.5659   15.7083    4.1928 O   0  0  0  0  0  0  0  0  0  0  0  0
   44.1623   14.8696    4.3012 H   0  0  0  0  0  0  0  0  0  0  0  0
   43.8576   15.3886    0.4524 O   0  0  0  0  0  0  0  0  0  0  0  0
   44.2839   15.7860   -0.8612 C   0  0  0  0  0  0  0  0  0  0  0  0
   43.0412   15.9964   -1.7287 C   0  0  0  0  0  0  0  0  0  0  0  0
   43.3093   16.3852   -3.2031 C   0  0  0  0  0  0  0  0  0  0  0  0
   42.3400   17.5241   -3.6183 C   0  0  0  0  0  0  0  0  0  0  0  0
   43.0250   15.1979   -4.1429 C   0  0  0  0  0  0  0  0  0  0  0  0
   44.7555   16.9531   -3.4290 C   0  0  0  0  0  0  0  0  0  0  0  0
   45.0795   18.2707   -4.2185 C   0  0  0  0  0  0  0  0  0  0  0  0
   46.5535   18.6764   -4.2150 C   0  0  0  0  0  0  0  0  0  0  0  0
   44.2810   19.4395   -3.5741 C   0  0  0  0  0  0  0  0  0  0  0  0
   44.5116   18.1446   -5.6890 C   0  0  0  0  0  0  0  0  0  0  0  0
   42.8931   19.8176   -6.6070 C   0  0  0  0  0  0  0  0  0  0  0  0
   44.3706   19.3539   -6.6747 C   0  0  0  0  0  0  0  0  0  0  0  0
   44.6762   19.0156   -8.1384 C   0  0  0  0  0  0  0  0  0  0  0  0
   45.2316   20.5581   -6.2458 C   0  0  0  0  0  0  0  0  0  0  0  0
 46 47  1  0
 47 48  1  0
 47 49  1  0
 47 45  1  0
 45 42  1  0
 42 43  1  0
 42 44  1  0
 42 41  1  0
 41 38  1  0
 38 39  1  0
 38 40  1  0
 38 37  1  0
 37 36  1  0
 36 35  1  0
 35  1  1  0
  1  2  2  0
  2 31  1  0
 31 32  2  0
 31 33  1  0
  2  3  1  0
  3  4  1  0
  4  7  1  0
  7  8  2  0
  8  9  1  0
  9 10  2  0
 10 11  1  0
 11 13  1  0
 13 15  1  0
 15 16  1  0
 16 17  1  0
 17 18  1  0
 18 21  1  0
 21 22  2  0
 21 23  2  0
 21 24  1  0
 24 25  1  0
 25 26  2  0
 26 27  1  0
 27 28  2  0
 28 29  1  0
 29 30  2  0
 18 19  1  0
 19 20  1  0
 11 12  2  0
  4  5  2  0
  5  6  1  0
  5  1  1  0
 12  7  1  0
 20 15  1  0
 30 25  1  0
 33 34  1  0
 13 14  1  0
M  END
> <minimizedAffinity>
-7.53931

> <CNNscore>
0.2276486754

> <CNNaffinity>
6.8134803772

> <CNN_VS>
1.5510797501

> <CNNaffinity_variance>
0.2164523602

$$$$



 49 52  0  0  0  0  0  0  0  0999 V2000
   44.3779   14.7809   -0.4016 C   0  0  0  0  0  0  0  0  0  0  0  0
   44.4912   15.0503    0.9494 C   0  0  0  0  0  0  0  0  0  0  0  0
   45.0554   13.6630    1.7929 S   0  0  0  0  0  0  0  0  0  0  0  0
   45.0902   12.6877    0.3773 C   0  0  0  0  0  0  0  0  0  0  0  0
   44.6544   13.4174   -0.7103 C   0  0  0  0  0  0  0  0  0  0  0  0
   44.4187   12.7381   -2.4683 Br  0  0  0  0  0  0  0  0  0  0  0  0
   45.5692   11.3006    0.4801 C   0  0  0  0  0  0  0  0  0  0  0  0
   44.8652   10.2683   -0.1496 C   0  0  0  0  0  0  0  0  0  0  0  0
   45.3059    8.9514   -0.0505 C   0  0  0  0  0  0  0  0  0  0  0  0
   46.4773    8.6606    0.6492 C   0  0  0  0  0  0  0  0  0  0  0  0
   47.2447    9.6747    1.2390 C   0  0  0  0  0  0  0  0  0  0  0  0
   46.7446   10.9838    1.1882 C   0  0  0  0  0  0  0  0  0  0  0  0
   48.4027    9.3086    1.9409 N   0  0  0  0  0  0  0  0  0  0  0  0
   49.0391    9.9980    2.2390 H   0  0  0  0  0  0  0  0  0  0  0  0
   48.6620    7.8881    2.2296 C   0  0  0  0  0  0  0  0  0  0  0  0
   49.8956    7.4075    1.4510 C   0  0  0  0  0  0  0  0  0  0  0  0
   51.1459    7.3751    2.3218 C   0  0  0  0  0  0  0  0  0  0  0  0
   50.9437    6.4606    3.4692 N   0  0  0  0  0  0  0  0  0  0  0  0
   49.5862    6.4256    4.0562 C   0  0  0  0  0  0  0  0  0  0  0  0
   48.8352    7.7109    3.7449 C   0  0  0  0  0  0  0  0  0  0  0  0
   52.2677    6.1766    4.4995 S   0  0  0  0  0  0  0  0  0  0  0  0
   52.6796    7.4632    5.0223 O   0  0  0  0  0  0  0  0  0  0  0  0
   53.1841    5.3271    3.7652 O   0  0  0  0  0  0  0  0  0  0  0  0
   51.5005    5.2190    5.8221 C   0  0  0  0  0  0  0  0  0  0  0  0
   51.7313    3.7505    5.5812 C   0  0  0  0  0  0  0  0  0  0  0  0
   50.8646    3.0221    4.7528 C   0  0  0  0  0  0  0  0  0  0  0  0
   51.0738    1.6608    4.5296 C   0  0  0  0  0  0  0  0  0  0  0  0
   52.1509    1.0148    5.1312 C   0  0  0  0  0  0  0  0  0  0  0  0
   53.0243    1.7301    5.9479 C   0  0  0  0  0  0  0  0  0  0  0  0
   52.8181    3.0917    6.1722 C   0  0  0  0  0  0  0  0  0  0  0  0
   44.2369   16.2458    1.7195 C   0  0  0  0  0  0  0  0  0  0  0  0
   43.8803   17.3459    1.3179 O   0  0  0  0  0  0  0  0  0  0  0  0
   44.4195   16.0660    3.0457 O   0  0  0  0  0  0  0  0  0  0  0  0
   44.6923   15.2312    3.3721 H   0  0  0  0  0  0  0  0  0  0  0  0
   43.9738   15.7065   -1.3085 O   0  0  0  0  0  0  0  0  0  0  0  0
   43.1984   15.0941   -2.3520 C   0  0  0  0  0  0  0  0  0  0  0  0
   42.3386   16.1743   -3.0116 C   0  0  0  0  0  0  0  0  0  0  0  0
   40.8909   15.7565   -3.3671 C   0  0  0  0  0  0  0  0  0  0  0  0
   40.8232   14.2128   -3.5135 C   0  0  0  0  0  0  0  0  0  0  0  0
   40.4679   16.3484   -4.7251 C   0  0  0  0  0  0  0  0  0  0  0  0
   39.8584   16.1234   -2.2427 C   0  0  0  0  0  0  0  0  0  0  0  0
   38.3969   15.5565   -2.1588 C   0  0  0  0  0  0  0  0  0  0  0  0
   37.4008   16.2017   -3.1224 C   0  0  0  0  0  0  0  0  0  0  0  0
   37.8596   15.7921   -0.7185 C   0  0  0  0  0  0  0  0  0  0  0  0
   38.4419   13.9851   -2.3304 C   0  0  0  0  0  0  0  0  0  0  0  0
   37.2400   13.7728   -4.5149 C   0  0  0  0  0  0  0  0  0  0  0  0
   37.3508   13.1611   -3.0950 C   0  0  0  0  0  0  0  0  0  0  0  0
   35.9555   13.2198   -2.4625 C   0  0  0  0  0  0  0  0  0  0  0  0
   37.7582   11.6863   -3.2800 C   0  0  0  0  0  0  0  0  0  0  0  0
 46 47  1  0
 47 48  1  0
 47 49  1  0
 47 45  1  0
 45 42  1  0
 42 43  1  0
 42 44  1  0
 42 41  1  0
 41 38  1  0
 38 39  1  0
 38 40  1  0
 38 37  1  0
 37 36  1  0
 36 35  1  0
 35  1  1  0
  1  2  2  0
  2 31  1  0
 31 32  2  0
 31 33  1  0
  2  3  1  0
  3  4  1  0
  4  7  1  0
  7  8  2  0
  8  9  1  0
  9 10  2  0
 10 11  1  0
 11 13  1  0
 13 15  1  0
 15 16  1  0
 16 17  1  0
 17 18  1  0
 18 21  1  0
 21 22  2  0
 21 23  2  0
 21 24  1  0
 24 25  1  0
 25 26  2  0
 26 27  1  0
 27 28  2  0
 28 29  1  0
 29 30  2  0
 18 19  1  0
 19 20  1  0
 11 12  2  0
  4  5  2  0
  5  6  1  0
  5  1  1  0
 12  7  1  0
 20 15  1  0
 30 25  1  0
 33 34  1  0
 13 14  1  0
M  END
> <minimizedAffinity>
-7.67802

> <CNNscore>
0.2086938173

> <CNNaffinity>
6.4279141426

> <CNN_VS>
1.3414659500

> <CNNaffinity_variance>
0.7046067715

$$$$



 49 52  0  0  0  0  0  0  0  0999 V2000
   44.6784   14.7756    1.1600 C   0  0  0  0  0  0  0  0  0  0  0  0
   45.2620   15.1131    2.3667 C   0  0  0  0  0  0  0  0  0  0  0  0
   46.5470   14.0326    2.7352 S   0  0  0  0  0  0  0  0  0  0  0  0
   46.2895   13.0808    1.3266 C   0  0  0  0  0  0  0  0  0  0  0  0
   45.2221   13.5797    0.6076 C   0  0  0  0  0  0  0  0  0  0  0  0
   44.4945   12.8015   -0.9649 Br  0  0  0  0  0  0  0  0  0  0  0  0
   47.1871   11.9461    1.0603 C   0  0  0  0  0  0  0  0  0  0  0  0
   48.1167   12.0186    0.0172 C   0  0  0  0  0  0  0  0  0  0  0  0
   48.9642   10.9463   -0.2479 C   0  0  0  0  0  0  0  0  0  0  0  0
   48.9143    9.8054    0.5534 C   0  0  0  0  0  0  0  0  0  0  0  0
   48.0414    9.7207    1.6471 C   0  0  0  0  0  0  0  0  0  0  0  0
   47.1479   10.7818    1.8516 C   0  0  0  0  0  0  0  0  0  0  0  0
   48.0328    8.5372    2.4000 N   0  0  0  0  0  0  0  0  0  0  0  0
   47.4367    7.7952    2.1484 H   0  0  0  0  0  0  0  0  0  0  0  0
   48.9197    8.4098    3.5686 C   0  0  0  0  0  0  0  0  0  0  0  0
   48.4810    7.2217    4.4375 C   0  0  0  0  0  0  0  0  0  0  0  0
   49.3336    5.9835    4.1874 C   0  0  0  0  0  0  0  0  0  0  0  0
   50.7538    6.2734    4.4915 N   0  0  0  0  0  0  0  0  0  0  0  0
   51.2381    7.6310    4.1584 C   0  0  0  0  0  0  0  0  0  0  0  0
   50.3681    8.2602    3.0814 C   0  0  0  0  0  0  0  0  0  0  0  0
   51.8623    4.9854    4.4035 S   0  0  0  0  0  0  0  0  0  0  0  0
   51.0919    3.7798    4.1770 O   0  0  0  0  0  0  0  0  0  0  0  0
   52.7404    5.1210    5.5486 O   0  0  0  0  0  0  0  0  0  0  0  0
   52.7762    5.3939    2.9025 C   0  0  0  0  0  0  0  0  0  0  0  0
   53.4467    4.1561    2.3674 C   0  0  0  0  0  0  0  0  0  0  0  0
   54.4433    3.5096    3.1135 C   0  0  0  0  0  0  0  0  0  0  0  0
   55.0686    2.3643    2.6197 C   0  0  0  0  0  0  0  0  0  0  0  0
   54.7038    1.8540    1.3763 C   0  0  0  0  0  0  0  0  0  0  0  0
   53.7082    2.4818    0.6306 C   0  0  0  0  0  0  0  0  0  0  0  0
   53.0805    3.6268    1.1224 C   0  0  0  0  0  0  0  0  0  0  0  0
   44.9879   16.1746    3.3076 C   0  0  0  0  0  0  0  0  0  0  0  0
   44.8932   17.3757    3.0905 O   0  0  0  0  0  0  0  0  0  0  0  0
   44.8102   15.7263    4.5692 O   0  0  0  0  0  0  0  0  0  0  0  0
   44.8787   14.8104    4.7550 H   0  0  0  0  0  0  0  0  0  0  0  0
   43.6512   15.4754    0.6143 O   0  0  0  0  0  0  0  0  0  0  0  0
   44.1395   16.4607   -0.3109 C   0  0  0  0  0  0  0  0  0  0  0  0
   43.3025   16.3788   -1.5892 C   0  0  0  0  0  0  0  0  0  0  0  0
   43.9298   17.0304   -2.8457 C   0  0  0  0  0  0  0  0  0  0  0  0
   44.9766   16.0619   -3.4582 C   0  0  0  0  0  0  0  0  0  0  0  0
   44.6854   18.3206   -2.4741 C   0  0  0  0  0  0  0  0  0  0  0  0
   42.8792   17.2961   -3.9818 C   0  0  0  0  0  0  0  0  0  0  0  0
   43.0072   18.4262   -5.0639 C   0  0  0  0  0  0  0  0  0  0  0  0
   44.4156   18.6224   -5.6251 C   0  0  0  0  0  0  0  0  0  0  0  0
   42.5784   19.7752   -4.4198 C   0  0  0  0  0  0  0  0  0  0  0  0
   41.9520   18.1634   -6.2122 C   0  0  0  0  0  0  0  0  0  0  0  0
   43.0888   16.0484   -6.9163 C   0  0  0  0  0  0  0  0  0  0  0  0
   41.7140   16.7627   -6.8721 C   0  0  0  0  0  0  0  0  0  0  0  0
   41.1843   16.8229   -8.3095 C   0  0  0  0  0  0  0  0  0  0  0  0
   40.7806   15.8727   -6.0283 C   0  0  0  0  0  0  0  0  0  0  0  0
 46 47  1  0
 47 48  1  0
 47 49  1  0
 47 45  1  0
 45 42  1  0
 42 43  1  0
 42 44  1  0
 42 41  1  0
 41 38  1  0
 38 39  1  0
 38 40  1  0
 38 37  1  0
 37 36  1  0
 36 35  1  0
 35  1  1  0
  1  2  2  0
  2 31  1  0
 31 32  2  0
 31 33  1  0
  2  3  1  0
  3  4  1  0
  4  7  1  0
  7  8  2  0
  8  9  1  0
  9 10  2  0
 10 11  1  0
 11 13  1  0
 13 15  1  0
 15 16  1  0
 16 17  1  0
 17 18  1  0
 18 21  1  0
 21 22  2  0
 21 23  2  0
 21 24  1  0
 24 25  1  0
 25 26  2  0
 26 27  1  0
 27 28  2  0
 28 29  1  0
 29 30  2  0
 18 19  1  0
 19 20  1  0
 11 12  2  0
  4  5  2  0
  5  6  1  0
  5  1  1  0
 12  7  1  0
 20 15  1  0
 30 25  1  0
 33 34  1  0
 13 14  1  0
M  END
> <minimizedAffinity>
-6.92531

> <CNNscore>
0.2071446478

> <CNNaffinity>
6.8340721130

> <CNN_VS>
1.4156414270

> <CNNaffinity_variance>
0.0530547351

$$$$



 49 52  0  0  0  0  0  0  0  0999 V2000
   50.5039    5.4889    2.7555 C   0  0  0  0  0  0  0  0  0  0  0  0
   50.9016    6.1755    3.8873 C   0  0  0  0  0  0  0  0  0  0  0  0
   50.5738    7.8542    3.7176 S   0  0  0  0  0  0  0  0  0  0  0  0
   49.9623    7.6795    2.1201 C   0  0  0  0  0  0  0  0  0  0  0  0
   50.0339    6.3578    1.7284 C   0  0  0  0  0  0  0  0  0  0  0  0
   49.5741    5.6930    0.0096 Br  0  0  0  0  0  0  0  0  0  0  0  0
   49.4490    8.8674    1.4205 C   0  0  0  0  0  0  0  0  0  0  0  0
   50.0695    9.3118    0.2477 C   0  0  0  0  0  0  0  0  0  0  0  0
   49.5963   10.4402   -0.4164 C   0  0  0  0  0  0  0  0  0  0  0  0
   48.4736   11.1125    0.0673 C   0  0  0  0  0  0  0  0  0  0  0  0
   47.7864   10.6604    1.2025 C   0  0  0  0  0  0  0  0  0  0  0  0
   48.3222    9.5657    1.8958 C   0  0  0  0  0  0  0  0  0  0  0  0
   46.6749   11.3945    1.6423 N   0  0  0  0  0  0  0  0  0  0  0  0
   46.7287   11.9252    2.4697 H   0  0  0  0  0  0  0  0  0  0  0  0
   45.4273   11.3674    0.8605 C   0  0  0  0  0  0  0  0  0  0  0  0
   44.5512   12.5760    1.2223 C   0  0  0  0  0  0  0  0  0  0  0  0
   44.6709   13.6975    0.1972 C   0  0  0  0  0  0  0  0  0  0  0  0
   44.2537   13.2130   -1.1387 N   0  0  0  0  0  0  0  0  0  0  0  0
   44.5998   11.8140   -1.4730 C   0  0  0  0  0  0  0  0  0  0  0  0
   45.7762   11.3388   -0.6345 C   0  0  0  0  0  0  0  0  0  0  0  0
   44.1871   14.3449   -2.4074 S   0  0  0  0  0  0  0  0  0  0  0  0
   43.2171   13.8512   -3.3634 O   0  0  0  0  0  0  0  0  0  0  0  0
   45.5590   14.6148   -2.7888 O   0  0  0  0  0  0  0  0  0  0  0  0
   43.5080   15.7911   -1.5693 C   0  0  0  0  0  0  0  0  0  0  0  0
   43.4511   16.9501   -2.5292 C   0  0  0  0  0  0  0  0  0  0  0  0
   42.3653   17.0933   -3.4058 C   0  0  0  0  0  0  0  0  0  0  0  0
   42.3106   18.1642   -4.2984 C   0  0  0  0  0  0  0  0  0  0  0  0
   43.3396   19.1023   -4.3231 C   0  0  0  0  0  0  0  0  0  0  0  0
   44.4182   18.9761   -3.4501 C   0  0  0  0  0  0  0  0  0  0  0  0
   44.4752   17.9066   -2.5558 C   0  0  0  0  0  0  0  0  0  0  0  0
   51.5032    5.7315    5.1235 C   0  0  0  0  0  0  0  0  0  0  0  0
   50.9661    5.1740    6.0719 O   0  0  0  0  0  0  0  0  0  0  0  0
   52.8302    5.9771    5.1806 O   0  0  0  0  0  0  0  0  0  0  0  0
   53.2591    6.4028    4.4645 H   0  0  0  0  0  0  0  0  0  0  0  0
   50.6255    4.1432    2.6263 O   0  0  0  0  0  0  0  0  0  0  0  0
   49.4392    3.4769    3.0889 C   0  0  0  0  0  0  0  0  0  0  0  0
   49.5712    1.9847    2.7771 C   0  0  0  0  0  0  0  0  0  0  0  0
   48.9644    1.0228    3.8275 C   0  0  0  0  0  0  0  0  0  0  0  0
   49.1664    1.6182    5.2465 C   0  0  0  0  0  0  0  0  0  0  0  0
   49.6911   -0.3357    3.8104 C   0  0  0  0  0  0  0  0  0  0  0  0
   47.4143    0.8383    3.6595 C   0  0  0  0  0  0  0  0  0  0  0  0
   46.7335   -0.4242    3.0216 C   0  0  0  0  0  0  0  0  0  0  0  0
   46.8827   -1.7128    3.8306 C   0  0  0  0  0  0  0  0  0  0  0  0
   47.3776   -0.6800    1.6293 C   0  0  0  0  0  0  0  0  0  0  0  0
   45.2162   -0.0958    2.7203 C   0  0  0  0  0  0  0  0  0  0  0  0
   45.9810    2.1280    1.8653 C   0  0  0  0  0  0  0  0  0  0  0  0
   44.7178    1.2788    2.1582 C   0  0  0  0  0  0  0  0  0  0  0  0
   43.8444    2.0802    3.1304 C   0  0  0  0  0  0  0  0  0  0  0  0
   43.9696    1.1238    0.8198 C   0  0  0  0  0  0  0  0  0  0  0  0
 46 47  1  0
 47 48  1  0
 47 49  1  0
 47 45  1  0
 45 42  1  0
 42 43  1  0
 42 44  1  0
 42 41  1  0
 41 38  1  0
 38 39  1  0
 38 40  1  0
 38 37  1  0
 37 36  1  0
 36 35  1  0
 35  1  1  0
  1  2  2  0
  2 31  1  0
 31 32  2  0
 31 33  1  0
  2  3  1  0
  3  4  1  0
  4  7  1  0
  7  8  2  0
  8  9  1  0
  9 10  2  0
 10 11  1  0
 11 13  1  0
 13 15  1  0
 15 16  1  0
 16 17  1  0
 17 18  1  0
 18 21  1  0
 21 22  2  0
 21 23  2  0
 21 24  1  0
 24 25  1  0
 25 26  2  0
 26 27  1  0
 27 28  2  0
 28 29  1  0
 29 30  2  0
 18 19  1  0
 19 20  1  0
 11 12  2  0
  4  5  2  0
  5  6  1  0
  5  1  1  0
 12  7  1  0
 20 15  1  0
 30 25  1  0
 33 34  1  0
 13 14  1  0
M  END
> <minimizedAffinity>
-6.66122

> <CNNscore>
0.2043734044

> <CNNaffinity>
6.0817217827

> <CNN_VS>
1.2429422140

> <CNNaffinity_variance>
0.6228392124

$$$$



 49 52  0  0  0  0  0  0  0  0999 V2000
   44.3848   14.7648   -0.1833 C   0  0  0  0  0  0  0  0  0  0  0  0
   44.5267   14.9984    1.1716 C   0  0  0  0  0  0  0  0  0  0  0  0
   45.1069   13.5891    1.9663 S   0  0  0  0  0  0  0  0  0  0  0  0
   45.1108   12.6514    0.5251 C   0  0  0  0  0  0  0  0  0  0  0  0
   44.6531   13.4098   -0.5336 C   0  0  0  0  0  0  0  0  0  0  0  0
   44.3797   12.7771   -2.3035 Br  0  0  0  0  0  0  0  0  0  0  0  0
   45.5902   11.2617    0.5812 C   0  0  0  0  0  0  0  0  0  0  0  0
   44.9283   10.2631   -0.1415 C   0  0  0  0  0  0  0  0  0  0  0  0
   45.3694    8.9436   -0.0875 C   0  0  0  0  0  0  0  0  0  0  0  0
   46.5006    8.6183    0.6614 C   0  0  0  0  0  0  0  0  0  0  0  0
   47.2280    9.6012    1.3471 C   0  0  0  0  0  0  0  0  0  0  0  0
   46.7250   10.9100    1.3374 C   0  0  0  0  0  0  0  0  0  0  0  0
   48.3461    9.2005    2.0934 N   0  0  0  0  0  0  0  0  0  0  0  0
   48.9109    9.8732    2.5379 H   0  0  0  0  0  0  0  0  0  0  0  0
   48.6709    7.7688    2.2090 C   0  0  0  0  0  0  0  0  0  0  0  0
   50.0581    7.4921    1.6104 C   0  0  0  0  0  0  0  0  0  0  0  0
   51.1350    7.3889    2.6839 C   0  0  0  0  0  0  0  0  0  0  0  0
   50.8139    6.2896    3.6231 N   0  0  0  0  0  0  0  0  0  0  0  0
   49.3827    6.0827    3.9352 C   0  0  0  0  0  0  0  0  0  0  0  0
   48.5910    7.3570    3.6860 C   0  0  0  0  0  0  0  0  0  0  0  0
   51.9566    5.9166    4.8274 S   0  0  0  0  0  0  0  0  0  0  0  0
   51.2243    5.3608    5.9469 O   0  0  0  0  0  0  0  0  0  0  0  0
   52.7940    7.0902    4.9759 O   0  0  0  0  0  0  0  0  0  0  0  0
   52.9074    4.6051    4.0330 C   0  0  0  0  0  0  0  0  0  0  0  0
   52.6914    3.3088    4.7685 C   0  0  0  0  0  0  0  0  0  0  0  0
   52.2310    2.1732    4.0856 C   0  0  0  0  0  0  0  0  0  0  0  0
   52.0271    0.9714    4.7643 C   0  0  0  0  0  0  0  0  0  0  0  0
   52.2815    0.8927    6.1311 C   0  0  0  0  0  0  0  0  0  0  0  0
   52.7487    2.0113    6.8182 C   0  0  0  0  0  0  0  0  0  0  0  0
   52.9544    3.2143    6.1419 C   0  0  0  0  0  0  0  0  0  0  0  0
   44.2901   16.1734    1.9781 C   0  0  0  0  0  0  0  0  0  0  0  0
   44.7390   16.4365    3.0863 O   0  0  0  0  0  0  0  0  0  0  0  0
   43.4728   17.0666    1.3794 O   0  0  0  0  0  0  0  0  0  0  0  0
   43.1193   16.8830    0.5312 H   0  0  0  0  0  0  0  0  0  0  0  0
   43.9628   15.7143   -1.0569 O   0  0  0  0  0  0  0  0  0  0  0  0
   43.0892   15.1455   -2.0461 C   0  0  0  0  0  0  0  0  0  0  0  0
   42.1865   16.2557   -2.5881 C   0  0  0  0  0  0  0  0  0  0  0  0
   40.9273   15.7832   -3.3549 C   0  0  0  0  0  0  0  0  0  0  0  0
   39.6579   16.2926   -2.6213 C   0  0  0  0  0  0  0  0  0  0  0  0
   40.8412   14.2450   -3.3713 C   0  0  0  0  0  0  0  0  0  0  0  0
   40.8440   16.3709   -4.8084 C   0  0  0  0  0  0  0  0  0  0  0  0
   42.0107   17.1394   -5.5244 C   0  0  0  0  0  0  0  0  0  0  0  0
   41.6257   17.8072   -6.8446 C   0  0  0  0  0  0  0  0  0  0  0  0
   43.1480   16.1261   -5.8379 C   0  0  0  0  0  0  0  0  0  0  0  0
   42.6469   18.1730   -4.5106 C   0  0  0  0  0  0  0  0  0  0  0  0
   44.1311   19.8804   -5.5799 C   0  0  0  0  0  0  0  0  0  0  0  0
   44.1263   18.6808   -4.5983 C   0  0  0  0  0  0  0  0  0  0  0  0
   45.1192   17.6451   -5.1385 C   0  0  0  0  0  0  0  0  0  0  0  0
   44.6400   19.2138   -3.2467 C   0  0  0  0  0  0  0  0  0  0  0  0
 46 47  1  0
 47 48  1  0
 47 49  1  0
 47 45  1  0
 45 42  1  0
 42 43  1  0
 42 44  1  0
 42 41  1  0
 41 38  1  0
 38 39  1  0
 38 40  1  0
 38 37  1  0
 37 36  1  0
 36 35  1  0
 35  1  1  0
  1  2  2  0
  2 31  1  0
 31 32  2  0
 31 33  1  0
  2  3  1  0
  3  4  1  0
  4  7  1  0
  7  8  2  0
  8  9  1  0
  9 10  2  0
 10 11  1  0
 11 13  1  0
 13 15  1  0
 15 16  1  0
 16 17  1  0
 17 18  1  0
 18 21  1  0
 21 22  2  0
 21 23  2  0
 21 24  1  0
 24 25  1  0
 25 26  2  0
 26 27  1  0
 27 28  2  0
 28 29  1  0
 29 30  2  0
 18 19  1  0
 19 20  1  0
 11 12  2  0
  4  5  2  0
  5  6  1  0
  5  1  1  0
 12  7  1  0
 20 15  1  0
 30 25  1  0
 33 34  1  0
 13 14  1  0
M  END
> <minimizedAffinity>
-7.69374

> <CNNscore>
0.2003576905

> <CNNaffinity>
6.3338904381

> <CNN_VS>
1.2690436840

> <CNNaffinity_variance>
0.6148025393

$$$$



 49 52  0  0  0  0  0  0  0  0999 V2000
   44.7890   14.4713    1.1784 C   0  0  0  0  0  0  0  0  0  0  0  0
   45.4764   14.8553    2.3144 C   0  0  0  0  0  0  0  0  0  0  0  0
   46.6950   13.7049    2.6965 S   0  0  0  0  0  0  0  0  0  0  0  0
   46.2707   12.6673    1.3928 C   0  0  0  0  0  0  0  0  0  0  0  0
   45.1997   13.1936    0.6990 C   0  0  0  0  0  0  0  0  0  0  0  0
   44.3103   12.3543   -0.7542 Br  0  0  0  0  0  0  0  0  0  0  0  0
   47.0572   11.4440    1.1715 C   0  0  0  0  0  0  0  0  0  0  0  0
   47.3454   11.0231   -0.1314 C   0  0  0  0  0  0  0  0  0  0  0  0
   48.0816    9.8619   -0.3507 C   0  0  0  0  0  0  0  0  0  0  0  0
   48.5683    9.1315    0.7336 C   0  0  0  0  0  0  0  0  0  0  0  0
   48.3554    9.5559    2.0527 C   0  0  0  0  0  0  0  0  0  0  0  0
   47.5513   10.6873    2.2516 C   0  0  0  0  0  0  0  0  0  0  0  0
   48.8597    8.7640    3.0949 N   0  0  0  0  0  0  0  0  0  0  0  0
   48.9074    9.1231    4.0103 H   0  0  0  0  0  0  0  0  0  0  0  0
   49.3174    7.3930    2.8133 C   0  0  0  0  0  0  0  0  0  0  0  0
   50.8378    7.3780    2.5959 C   0  0  0  0  0  0  0  0  0  0  0  0
   51.5899    6.9202    3.8399 C   0  0  0  0  0  0  0  0  0  0  0  0
   51.1674    5.5512    4.2152 N   0  0  0  0  0  0  0  0  0  0  0  0
   49.7425    5.2162    4.0009 C   0  0  0  0  0  0  0  0  0  0  0  0
   48.8946    6.4784    3.9719 C   0  0  0  0  0  0  0  0  0  0  0  0
   51.9808    4.7961    5.5050 S   0  0  0  0  0  0  0  0  0  0  0  0
   51.0431    4.7153    6.6062 O   0  0  0  0  0  0  0  0  0  0  0  0
   53.2541    5.4751    5.6407 O   0  0  0  0  0  0  0  0  0  0  0  0
   52.2577    3.1414    4.8415 C   0  0  0  0  0  0  0  0  0  0  0  0
   52.8955    3.2434    3.4811 C   0  0  0  0  0  0  0  0  0  0  0  0
   52.1478    2.9758    2.3247 C   0  0  0  0  0  0  0  0  0  0  0  0
   52.7361    3.0665    1.0628 C   0  0  0  0  0  0  0  0  0  0  0  0
   54.0763    3.4259    0.9444 C   0  0  0  0  0  0  0  0  0  0  0  0
   54.8263    3.7039    2.0854 C   0  0  0  0  0  0  0  0  0  0  0  0
   54.2404    3.6148    3.3486 C   0  0  0  0  0  0  0  0  0  0  0  0
   45.3493   16.0084    3.1755 C   0  0  0  0  0  0  0  0  0  0  0  0
   46.1349   16.4135    4.0225 O   0  0  0  0  0  0  0  0  0  0  0  0
   44.2056   16.6963    2.9681 O   0  0  0  0  0  0  0  0  0  0  0  0
   43.5920   16.4018    2.3241 H   0  0  0  0  0  0  0  0  0  0  0  0
   43.7853   15.2078    0.6374 O   0  0  0  0  0  0  0  0  0  0  0  0
   44.2765   16.0320   -0.4324 C   0  0  0  0  0  0  0  0  0  0  0  0
   43.3244   15.8961   -1.6225 C   0  0  0  0  0  0  0  0  0  0  0  0
   43.9359   16.2053   -3.0107 C   0  0  0  0  0  0  0  0  0  0  0  0
   45.2672   15.4237   -3.1712 C   0  0  0  0  0  0  0  0  0  0  0  0
   44.2837   17.7011   -3.1351 C   0  0  0  0  0  0  0  0  0  0  0  0
   43.0206   15.7358   -4.1968 C   0  0  0  0  0  0  0  0  0  0  0  0
   42.7837   16.5552   -5.5147 C   0  0  0  0  0  0  0  0  0  0  0  0
   41.3183   16.8554   -5.8304 C   0  0  0  0  0  0  0  0  0  0  0  0
   43.3523   15.7394   -6.7104 C   0  0  0  0  0  0  0  0  0  0  0  0
   43.6530   17.8753   -5.4653 C   0  0  0  0  0  0  0  0  0  0  0  0
   45.2976   17.8432   -7.3510 C   0  0  0  0  0  0  0  0  0  0  0  0
   44.1267   18.6541   -6.7393 C   0  0  0  0  0  0  0  0  0  0  0  0
   44.6484   20.0681   -6.4585 C   0  0  0  0  0  0  0  0  0  0  0  0
   43.0289   18.7275   -7.8185 C   0  0  0  0  0  0  0  0  0  0  0  0
 46 47  1  0
 47 48  1  0
 47 49  1  0
 47 45  1  0
 45 42  1  0
 42 43  1  0
 42 44  1  0
 42 41  1  0
 41 38  1  0
 38 39  1  0
 38 40  1  0
 38 37  1  0
 37 36  1  0
 36 35  1  0
 35  1  1  0
  1  2  2  0
  2 31  1  0
 31 32  2  0
 31 33  1  0
  2  3  1  0
  3  4  1  0
  4  7  1  0
  7  8  2  0
  8  9  1  0
  9 10  2  0
 10 11  1  0
 11 13  1  0
 13 15  1  0
 15 16  1  0
 16 17  1  0
 17 18  1  0
 18 21  1  0
 21 22  2  0
 21 23  2  0
 21 24  1  0
 24 25  1  0
 25 26  2  0
 26 27  1  0
 27 28  2  0
 28 29  1  0
 29 30  2  0
 18 19  1  0
 19 20  1  0
 11 12  2  0
  4  5  2  0
  5  6  1  0
  5  1  1  0
 12  7  1  0
 20 15  1  0
 30 25  1  0
 33 34  1  0
 13 14  1  0
M  END
> <minimizedAffinity>
-6.28225

> <CNNscore>
0.1978453696

> <CNNaffinity>
6.7147579193

> <CNN_VS>
1.3284838200

> <CNNaffinity_variance>
0.1262981594

$$$$



 49 52  0  0  0  0  0  0  0  0999 V2000
   44.5953   13.9870    0.1828 C   0  0  0  0  0  0  0  0  0  0  0  0
   45.0174   14.3137    1.4578 C   0  0  0  0  0  0  0  0  0  0  0  0
   45.9025   13.0124    2.1490 S   0  0  0  0  0  0  0  0  0  0  0  0
   45.6731   11.9936    0.7831 C   0  0  0  0  0  0  0  0  0  0  0  0
   44.9124   12.6427   -0.1683 C   0  0  0  0  0  0  0  0  0  0  0  0
   44.3088   11.8825   -1.8009 Br  0  0  0  0  0  0  0  0  0  0  0  0
   46.2905   10.6584    0.7792 C   0  0  0  0  0  0  0  0  0  0  0  0
   45.9623    9.7382   -0.2223 C   0  0  0  0  0  0  0  0  0  0  0  0
   46.5348    8.4691   -0.2291 C   0  0  0  0  0  0  0  0  0  0  0  0
   47.4704    8.1227    0.7461 C   0  0  0  0  0  0  0  0  0  0  0  0
   47.8729    9.0389    1.7278 C   0  0  0  0  0  0  0  0  0  0  0  0
   47.2310   10.2852    1.7588 C   0  0  0  0  0  0  0  0  0  0  0  0
   48.8058    8.6177    2.6869 N   0  0  0  0  0  0  0  0  0  0  0  0
   48.8411    9.0553    3.5681 H   0  0  0  0  0  0  0  0  0  0  0  0
   49.7322    7.5179    2.3696 C   0  0  0  0  0  0  0  0  0  0  0  0
   51.1635    7.8992    2.7758 C   0  0  0  0  0  0  0  0  0  0  0  0
   51.5627    7.2845    4.1121 C   0  0  0  0  0  0  0  0  0  0  0  0
   51.4863    5.8074    4.0361 N   0  0  0  0  0  0  0  0  0  0  0  0
   50.3918    5.2426    3.2165 C   0  0  0  0  0  0  0  0  0  0  0  0
   49.2547    6.2431    3.0798 C   0  0  0  0  0  0  0  0  0  0  0  0
   52.0171    4.9157    5.3846 S   0  0  0  0  0  0  0  0  0  0  0  0
   51.0163    5.0786    6.4192 O   0  0  0  0  0  0  0  0  0  0  0  0
   53.4012    5.2863    5.6026 O   0  0  0  0  0  0  0  0  0  0  0  0
   51.9465    3.2266    4.7545 C   0  0  0  0  0  0  0  0  0  0  0  0
   50.8296    2.4803    5.4352 C   0  0  0  0  0  0  0  0  0  0  0  0
   49.6559    2.1652    4.7344 C   0  0  0  0  0  0  0  0  0  0  0  0
   48.6178    1.4764    5.3627 C   0  0  0  0  0  0  0  0  0  0  0  0
   48.7429    1.0955    6.6963 C   0  0  0  0  0  0  0  0  0  0  0  0
   49.9081    1.3942    7.3997 C   0  0  0  0  0  0  0  0  0  0  0  0
   50.9481    2.0821    6.7737 C   0  0  0  0  0  0  0  0  0  0  0  0
   44.8530   15.5093    2.2519 C   0  0  0  0  0  0  0  0  0  0  0  0
   45.5428   15.9024    3.1838 O   0  0  0  0  0  0  0  0  0  0  0  0
   43.7962   16.2563    1.8654 O   0  0  0  0  0  0  0  0  0  0  0  0
   43.2565   15.9719    1.1542 H   0  0  0  0  0  0  0  0  0  0  0  0
   43.8919   14.8404   -0.6043 O   0  0  0  0  0  0  0  0  0  0  0  0
   44.5193   14.9842   -1.8892 C   0  0  0  0  0  0  0  0  0  0  0  0
   43.5521   15.7204   -2.8187 C   0  0  0  0  0  0  0  0  0  0  0  0
   44.2045   16.4956   -3.9893 C   0  0  0  0  0  0  0  0  0  0  0  0
   43.0992   16.9717   -4.9693 C   0  0  0  0  0  0  0  0  0  0  0  0
   45.1457   15.5801   -4.7953 C   0  0  0  0  0  0  0  0  0  0  0  0
   44.9460   17.7970   -3.5186 C   0  0  0  0  0  0  0  0  0  0  0  0
   45.8156   18.7114   -4.4525 C   0  0  0  0  0  0  0  0  0  0  0  0
   45.0281   19.7550   -5.2449 C   0  0  0  0  0  0  0  0  0  0  0  0
   46.5459   17.8067   -5.4854 C   0  0  0  0  0  0  0  0  0  0  0  0
   46.9686   19.3749   -3.5972 C   0  0  0  0  0  0  0  0  0  0  0  0
   48.9047   17.8028   -3.8018 C   0  0  0  0  0  0  0  0  0  0  0  0
   48.4882   19.2866   -3.9674 C   0  0  0  0  0  0  0  0  0  0  0  0
   49.4074   20.1218   -3.0685 C   0  0  0  0  0  0  0  0  0  0  0  0
   48.7513   19.6576   -5.4399 C   0  0  0  0  0  0  0  0  0  0  0  0
 46 47  1  0
 47 48  1  0
 47 49  1  0
 47 45  1  0
 45 42  1  0
 42 43  1  0
 42 44  1  0
 42 41  1  0
 41 38  1  0
 38 39  1  0
 38 40  1  0
 38 37  1  0
 37 36  1  0
 36 35  1  0
 35  1  1  0
  1  2  2  0
  2 31  1  0
 31 32  2  0
 31 33  1  0
  2  3  1  0
  3  4  1  0
  4  7  1  0
  7  8  2  0
  8  9  1  0
  9 10  2  0
 10 11  1  0
 11 13  1  0
 13 15  1  0
 15 16  1  0
 16 17  1  0
 17 18  1  0
 18 21  1  0
 21 22  2  0
 21 23  2  0
 21 24  1  0
 24 25  1  0
 25 26  2  0
 26 27  1  0
 27 28  2  0
 28 29  1  0
 29 30  2  0
 18 19  1  0
 19 20  1  0
 11 12  2  0
  4  5  2  0
  5  6  1  0
  5  1  1  0
 12  7  1  0
 20 15  1  0
 30 25  1  0
 33 34  1  0
 13 14  1  0
M  END
> <minimizedAffinity>
-7.68299

> <CNNscore>
0.1912190467

> <CNNaffinity>
6.6654105186

> <CNN_VS>
1.2745534182

> <CNNaffinity_variance>
0.1916666776

$$$$



 49 52  0  0  0  0  0  0  0  0999 V2000
   44.7845   14.5948    1.3545 C   0  0  0  0  0  0  0  0  0  0  0  0
   45.3722   14.9123    2.5646 C   0  0  0  0  0  0  0  0  0  0  0  0
   46.6516   13.8196    2.9158 S   0  0  0  0  0  0  0  0  0  0  0  0
   46.3862   12.8888    1.4947 C   0  0  0  0  0  0  0  0  0  0  0  0
   45.3203   13.4036    0.7846 C   0  0  0  0  0  0  0  0  0  0  0  0
   44.5855   12.6513   -0.7971 Br  0  0  0  0  0  0  0  0  0  0  0  0
   47.2768   11.7528    1.2111 C   0  0  0  0  0  0  0  0  0  0  0  0
   48.1568   11.8073    0.1247 C   0  0  0  0  0  0  0  0  0  0  0  0
   48.9971   10.7334   -0.1568 C   0  0  0  0  0  0  0  0  0  0  0  0
   48.9906    9.6096    0.6698 C   0  0  0  0  0  0  0  0  0  0  0  0
   48.1696    9.5443    1.8043 C   0  0  0  0  0  0  0  0  0  0  0  0
   47.2806   10.6054    2.0277 C   0  0  0  0  0  0  0  0  0  0  0  0
   48.2024    8.3771    2.5817 N   0  0  0  0  0  0  0  0  0  0  0  0
   47.6018    7.6259    2.3716 H   0  0  0  0  0  0  0  0  0  0  0  0
   49.1396    8.2807    3.7135 C   0  0  0  0  0  0  0  0  0  0  0  0
   48.8229    7.0366    4.5567 C   0  0  0  0  0  0  0  0  0  0  0  0
   49.7549    5.8743    4.2353 C   0  0  0  0  0  0  0  0  0  0  0  0
   51.1602    6.2606    4.4988 N   0  0  0  0  0  0  0  0  0  0  0  0
   51.5298    7.6605    4.1949 C   0  0  0  0  0  0  0  0  0  0  0  0
   50.5757    8.2555    3.1709 C   0  0  0  0  0  0  0  0  0  0  0  0
   52.3569    5.0630    4.3287 S   0  0  0  0  0  0  0  0  0  0  0  0
   53.2186    5.1592    5.4891 O   0  0  0  0  0  0  0  0  0  0  0  0
   52.8789    5.1930    2.9829 O   0  0  0  0  0  0  0  0  0  0  0  0
   51.3780    3.5518    4.4427 C   0  0  0  0  0  0  0  0  0  0  0  0
   52.2152    2.4522    5.0409 C   0  0  0  0  0  0  0  0  0  0  0  0
   53.2007    1.8130    4.2740 C   0  0  0  0  0  0  0  0  0  0  0  0
   53.9763    0.7920    4.8240 C   0  0  0  0  0  0  0  0  0  0  0  0
   53.7750    0.4004    6.1452 C   0  0  0  0  0  0  0  0  0  0  0  0
   52.8060    1.0349    6.9198 C   0  0  0  0  0  0  0  0  0  0  0  0
   52.0295    2.0568    6.3727 C   0  0  0  0  0  0  0  0  0  0  0  0
   45.1059   15.9622    3.5205 C   0  0  0  0  0  0  0  0  0  0  0  0
   44.9846   17.1630    3.3151 O   0  0  0  0  0  0  0  0  0  0  0  0
   44.9706   15.5021    4.7832 O   0  0  0  0  0  0  0  0  0  0  0  0
   45.0599   14.5863    4.9602 H   0  0  0  0  0  0  0  0  0  0  0  0
   43.7603   15.3079    0.8204 O   0  0  0  0  0  0  0  0  0  0  0  0
   44.2368   16.1976   -0.2026 C   0  0  0  0  0  0  0  0  0  0  0  0
   43.1805   16.2727   -1.3070 C   0  0  0  0  0  0  0  0  0  0  0  0
   43.6978   16.6952   -2.7037 C   0  0  0  0  0  0  0  0  0  0  0  0
   44.7367   15.6556   -3.2027 C   0  0  0  0  0  0  0  0  0  0  0  0
   44.4280   18.0499   -2.6305 C   0  0  0  0  0  0  0  0  0  0  0  0
   42.5646   16.7203   -3.7901 C   0  0  0  0  0  0  0  0  0  0  0  0
   41.2678   15.8368   -3.7421 C   0  0  0  0  0  0  0  0  0  0  0  0
   40.2836   16.1994   -2.6299 C   0  0  0  0  0  0  0  0  0  0  0  0
   41.6887   14.3567   -3.5170 C   0  0  0  0  0  0  0  0  0  0  0  0
   40.5760   15.8574   -5.1640 C   0  0  0  0  0  0  0  0  0  0  0  0
   42.7386   16.0022   -6.4147 C   0  0  0  0  0  0  0  0  0  0  0  0
   41.2974   15.4366   -6.4894 C   0  0  0  0  0  0  0  0  0  0  0  0
   40.6537   15.9942   -7.7642 C   0  0  0  0  0  0  0  0  0  0  0  0
   41.4295   13.9066   -6.6199 C   0  0  0  0  0  0  0  0  0  0  0  0
 46 47  1  0
 47 48  1  0
 47 49  1  0
 47 45  1  0
 45 42  1  0
 42 43  1  0
 42 44  1  0
 42 41  1  0
 41 38  1  0
 38 39  1  0
 38 40  1  0
 38 37  1  0
 37 36  1  0
 36 35  1  0
 35  1  1  0
  1  2  2  0
  2 31  1  0
 31 32  2  0
 31 33  1  0
  2  3  1  0
  3  4  1  0
  4  7  1  0
  7  8  2  0
  8  9  1  0
  9 10  2  0
 10 11  1  0
 11 13  1  0
 13 15  1  0
 15 16  1  0
 16 17  1  0
 17 18  1  0
 18 21  1  0
 21 22  2  0
 21 23  2  0
 21 24  1  0
 24 25  1  0
 25 26  2  0
 26 27  1  0
 27 28  2  0
 28 29  1  0
 29 30  2  0
 18 19  1  0
 19 20  1  0
 11 12  2  0
  4  5  2  0
  5  6  1  0
  5  1  1  0
 12  7  1  0
 20 15  1  0
 30 25  1  0
 33 34  1  0
 13 14  1  0
M  END
> <minimizedAffinity>
-7.37050

> <CNNscore>
0.1870193034

> <CNNaffinity>
6.7314038277

> <CNN_VS>
1.2589024305

> <CNNaffinity_variance>
0.1192182899

$$$$
