


 42 43  0  0  0  0  0  0  0  0999 V2000
   42.1174   -0.2177   28.0213 C   0  0  0  0  0  0  0  0  0  0  0  0
   42.1548   -1.7556   28.1519 C   0  0  0  0  0  0  0  0  0  0  0  0
   41.7265   -2.5595   26.8923 C   0  0  0  0  0  0  0  0  0  0  0  0
   42.7010   -2.3614   25.7273 C   0  0  0  0  0  0  0  0  0  0  0  0
   40.2798   -2.2930   26.4042 C   0  0  0  0  0  0  0  0  0  0  0  0
   39.2118   -2.5861   27.4372 C   0  0  0  0  0  0  0  0  0  0  0  0
   38.7723   -1.5282   28.2597 C   0  0  0  0  0  0  0  0  0  0  0  0
   37.8799   -1.7314   29.3151 C   0  0  0  0  0  0  0  0  0  0  0  0
   37.3362   -3.0027   29.4986 C   0  0  0  0  0  0  0  0  0  0  0  0
   37.7288   -4.0520   28.6699 C   0  0  0  0  0  0  0  0  0  0  0  0
   37.1665   -5.2770   28.9170 O   0  0  0  0  0  0  0  0  0  0  0  0
   38.6731   -3.8610   27.6528 C   0  0  0  0  0  0  0  0  0  0  0  0
   39.1456   -5.2251   26.6987 Cl  0  0  0  0  0  0  0  0  0  0  0  0
   37.5627   -0.7387   30.2661 N   0  0  0  0  0  0  0  0  0  0  0  0
   38.1448    0.5075   30.3804 C   0  0  0  0  0  0  0  0  0  0  0  0
   38.8081    1.0999   29.5351 O   0  0  0  0  0  0  0  0  0  0  0  0
   37.9390    1.1428   31.7241 C   0  0  0  0  0  0  0  0  0  0  0  0
   37.6131    2.6034   31.6894 C   0  0  0  0  0  0  0  0  0  0  0  0
   38.2320    0.4042   32.8139 C   0  0  0  0  0  0  0  0  0  0  0  0
   38.3377    0.8854   34.2372 C   0  0  0  0  0  0  0  0  0  0  0  0
   39.7687    1.3457   34.5652 C   0  0  0  0  0  0  0  0  0  0  0  0
   40.8473    0.2353   34.4437 C   0  0  0  0  0  0  0  0  0  0  0  0
   40.8067   -0.7008   35.6559 C   0  0  0  0  0  0  0  0  0  0  0  0
   42.2537    0.8532   34.1590 C   0  0  0  0  0  0  0  0  0  0  0  0
   42.8623    0.2046   32.9054 C   0  0  0  0  0  0  0  0  0  0  0  0
   43.4162   -1.1848   33.0723 C   0  0  0  0  0  0  0  0  0  0  0  0
   42.8235    0.8784   31.7354 C   0  0  0  0  0  0  0  0  0  0  0  0
   43.2479    0.4355   30.3397 C   0  0  0  0  0  0  0  0  0  0  0  0
   44.3896    1.3499   29.8922 C   0  0  0  0  0  0  0  0  0  0  0  0
   41.9918    0.4543   29.4221 C   0  0  0  0  0  0  0  0  0  0  0  0
   41.5116    1.8021   29.2599 O   0  0  0  0  0  0  0  0  0  0  0  0
   36.5373   -5.3736   29.6046 H   0  0  0  0  0  0  0  0  0  0  0  0
   36.8542   -0.9570   30.9140 H   0  0  0  0  0  0  0  0  0  0  0  0
   42.1713    2.3245   28.7773 H   0  0  0  0  0  0  0  0  0  0  0  0
   43.0101    1.0984   26.2400 C   0  0  0  0  0  0  0  0  0  0  0  0
   43.2836    0.1788   27.2913 O   0  0  0  0  0  0  0  0  0  0  0  0
   43.1793    0.6822   35.2440 O   0  0  0  0  0  0  0  0  0  0  0  0
   43.2557    1.7127   36.1118 C   0  0  0  0  0  0  0  0  0  0  0  0
   44.4292    1.6609   36.7820 N   0  0  0  0  0  0  0  0  0  0  0  0
   42.4192    2.5821   36.2924 O   0  0  0  0  0  0  0  0  0  0  0  0
   45.0699    0.9365   36.5975 H   0  0  0  0  0  0  0  0  0  0  0  0
   44.6428    2.3477   37.4543 H   0  0  0  0  0  0  0  0  0  0  0  0
 35 36  1  0
  1 36  1  0
  1  2  1  0
  2  3  1  0
  3  4  1  0
  3  5  1  0
  5  6  1  0
  6  7  2  0
  7  8  1  0
  8  9  2  0
  9 10  1  0
 10 11  1  0
 10 12  2  0
 12 13  1  0
  8 14  1  0
 14 15  1  0
 15 16  2  0
 15 17  1  0
 17 18  1  0
 17 19  2  0
 19 20  1  0
 20 21  1  0
 21 22  1  0
 22 23  1  0
 22 24  1  0
 24 37  1  0
 37 38  1  0
 38 39  1  0
 38 40  2  0
 24 25  1  0
 25 26  1  0
 25 27  2  0
 27 28  1  0
 28 29  1  0
 28 30  1  0
 30 31  1  0
 30  1  1  0
 12  6  1  0
 11 32  1  0
 14 33  1  0
 39 41  1  0
 39 42  1  0
 31 34  1  0
M  END
> <minimizedAffinity>
-6.50608

> <CNNscore>
0.5369116068

> <CNNaffinity>
6.2845597267

> <CNN_VS>
3.3742530346

> <CNNaffinity_variance>
0.1425950825

$$$$



 42 43  0  0  0  0  0  0  0  0999 V2000
   42.9965   -5.9754   34.7162 C   0  0  0  0  0  0  0  0  0  0  0  0
   41.8604   -5.0565   34.2177 C   0  0  0  0  0  0  0  0  0  0  0  0
   42.2262   -3.5575   34.0293 C   0  0  0  0  0  0  0  0  0  0  0  0
   43.2518   -3.3541   32.9100 C   0  0  0  0  0  0  0  0  0  0  0  0
   42.7129   -2.8347   35.3110 C   0  0  0  0  0  0  0  0  0  0  0  0
   41.7166   -2.8539   36.4515 C   0  0  0  0  0  0  0  0  0  0  0  0
   41.8126   -3.8907   37.4025 C   0  0  0  0  0  0  0  0  0  0  0  0
   40.8670   -4.0554   38.4176 C   0  0  0  0  0  0  0  0  0  0  0  0
   39.8515   -3.1082   38.5485 C   0  0  0  0  0  0  0  0  0  0  0  0
   39.7642   -2.0540   37.6414 C   0  0  0  0  0  0  0  0  0  0  0  0
   38.7326   -1.1698   37.8203 O   0  0  0  0  0  0  0  0  0  0  0  0
   40.6752   -1.9266   36.5848 C   0  0  0  0  0  0  0  0  0  0  0  0
   40.4697   -0.6181   35.4712 Cl  0  0  0  0  0  0  0  0  0  0  0  0
   40.8288   -5.1800   39.2686 N   0  0  0  0  0  0  0  0  0  0  0  0
   41.6099   -6.3136   39.1699 C   0  0  0  0  0  0  0  0  0  0  0  0
   42.6562   -6.4447   38.5429 O   0  0  0  0  0  0  0  0  0  0  0  0
   41.0451   -7.4947   39.9032 C   0  0  0  0  0  0  0  0  0  0  0  0
   42.0479   -8.3049   40.6640 C   0  0  0  0  0  0  0  0  0  0  0  0
   39.7546   -7.8121   39.6729 C   0  0  0  0  0  0  0  0  0  0  0  0
   39.0383   -9.0688   40.0925 C   0  0  0  0  0  0  0  0  0  0  0  0
   39.1609  -10.1649   39.0197 C   0  0  0  0  0  0  0  0  0  0  0  0
   38.5373   -9.7959   37.6463 C   0  0  0  0  0  0  0  0  0  0  0  0
   37.0110   -9.9233   37.6873 C   0  0  0  0  0  0  0  0  0  0  0  0
   39.2160  -10.6005   36.4918 C   0  0  0  0  0  0  0  0  0  0  0  0
   39.7201   -9.6321   35.4098 C   0  0  0  0  0  0  0  0  0  0  0  0
   38.6767   -9.0455   34.4976 C   0  0  0  0  0  0  0  0  0  0  0  0
   41.0348   -9.3255   35.3670 C   0  0  0  0  0  0  0  0  0  0  0  0
   41.7760   -8.3282   34.4835 C   0  0  0  0  0  0  0  0  0  0  0  0
   42.7655   -9.1181   33.6251 C   0  0  0  0  0  0  0  0  0  0  0  0
   42.4175   -7.2495   35.4026 C   0  0  0  0  0  0  0  0  0  0  0  0
   43.4321   -7.8417   36.2354 O   0  0  0  0  0  0  0  0  0  0  0  0
   38.1391   -1.2811   38.5368 H   0  0  0  0  0  0  0  0  0  0  0  0
   40.1792   -5.1534   40.0079 H   0  0  0  0  0  0  0  0  0  0  0  0
   44.1644   -8.1532   35.6808 H   0  0  0  0  0  0  0  0  0  0  0  0
   45.2317   -6.1959   33.9056 C   0  0  0  0  0  0  0  0  0  0  0  0
   43.8437   -6.2552   33.5964 O   0  0  0  0  0  0  0  0  0  0  0  0
   38.3363  -11.5489   35.8672 O   0  0  0  0  0  0  0  0  0  0  0  0
   37.0471  -11.1649   35.7613 C   0  0  0  0  0  0  0  0  0  0  0  0
   36.2356  -12.1705   36.1599 N   0  0  0  0  0  0  0  0  0  0  0  0
   36.6338  -10.0842   35.3745 O   0  0  0  0  0  0  0  0  0  0  0  0
   36.6217  -13.0238   36.4635 H   0  0  0  0  0  0  0  0  0  0  0  0
   35.2586  -12.0494   36.1466 H   0  0  0  0  0  0  0  0  0  0  0  0
 35 36  1  0
  1 36  1  0
  1  2  1  0
  2  3  1  0
  3  4  1  0
  3  5  1  0
  5  6  1  0
  6  7  2  0
  7  8  1  0
  8  9  2  0
  9 10  1  0
 10 11  1  0
 10 12  2  0
 12 13  1  0
  8 14  1  0
 14 15  1  0
 15 16  2  0
 15 17  1  0
 17 18  1  0
 17 19  2  0
 19 20  1  0
 20 21  1  0
 21 22  1  0
 22 23  1  0
 22 24  1  0
 24 37  1  0
 37 38  1  0
 38 39  1  0
 38 40  2  0
 24 25  1  0
 25 26  1  0
 25 27  2  0
 27 28  1  0
 28 29  1  0
 28 30  1  0
 30 31  1  0
 30  1  1  0
 12  6  1  0
 11 32  1  0
 14 33  1  0
 39 41  1  0
 39 42  1  0
 31 34  1  0
M  END
> <minimizedAffinity>
-8.85105

> <CNNscore>
0.3378702402

> <CNNaffinity>
6.2526316643

> <CNN_VS>
2.1125781536

> <CNNaffinity_variance>
0.0902118087

$$$$



 42 43  0  0  0  0  0  0  0  0999 V2000
   44.5723   -3.3796   30.0185 C   0  0  0  0  0  0  0  0  0  0  0  0
   45.7020   -2.7391   30.8534 C   0  0  0  0  0  0  0  0  0  0  0  0
   46.9994   -2.3712   30.0801 C   0  0  0  0  0  0  0  0  0  0  0  0
   46.7586   -1.2620   29.0517 C   0  0  0  0  0  0  0  0  0  0  0  0
   47.7147   -3.5627   29.3941 C   0  0  0  0  0  0  0  0  0  0  0  0
   48.1252   -4.6702   30.3421 C   0  0  0  0  0  0  0  0  0  0  0  0
   47.2353   -5.7475   30.5329 C   0  0  0  0  0  0  0  0  0  0  0  0
   47.4769   -6.7505   31.4749 C   0  0  0  0  0  0  0  0  0  0  0  0
   48.6809   -6.7337   32.1790 C   0  0  0  0  0  0  0  0  0  0  0  0
   49.5904   -5.6979   31.9744 C   0  0  0  0  0  0  0  0  0  0  0  0
   50.7453   -5.7363   32.7112 O   0  0  0  0  0  0  0  0  0  0  0  0
   49.3178   -4.6576   31.0766 C   0  0  0  0  0  0  0  0  0  0  0  0
   50.4757   -3.3817   30.9157 Cl  0  0  0  0  0  0  0  0  0  0  0  0
   46.5287   -7.7364   31.8204 N   0  0  0  0  0  0  0  0  0  0  0  0
   45.2178   -7.8028   31.3936 C   0  0  0  0  0  0  0  0  0  0  0  0
   44.7168   -7.2248   30.4343 O   0  0  0  0  0  0  0  0  0  0  0  0
   44.3493   -8.6654   32.2614 C   0  0  0  0  0  0  0  0  0  0  0  0
   43.3945   -9.5488   31.5205 C   0  0  0  0  0  0  0  0  0  0  0  0
   44.3821   -8.4442   33.5914 C   0  0  0  0  0  0  0  0  0  0  0  0
   43.4439   -9.0015   34.6295 C   0  0  0  0  0  0  0  0  0  0  0  0
   42.2287   -8.0803   34.8346 C   0  0  0  0  0  0  0  0  0  0  0  0
   42.5780   -6.6555   35.3436 C   0  0  0  0  0  0  0  0  0  0  0  0
   42.8931   -6.6729   36.8430 C   0  0  0  0  0  0  0  0  0  0  0  0
   41.4724   -5.6306   34.9338 C   0  0  0  0  0  0  0  0  0  0  0  0
   42.1108   -4.4476   34.1884 C   0  0  0  0  0  0  0  0  0  0  0  0
   42.8450   -3.4416   35.0332 C   0  0  0  0  0  0  0  0  0  0  0  0
   42.0256   -4.4001   32.8412 C   0  0  0  0  0  0  0  0  0  0  0  0
   42.6502   -3.4165   31.8580 C   0  0  0  0  0  0  0  0  0  0  0  0
   41.5091   -2.6913   31.1426 C   0  0  0  0  0  0  0  0  0  0  0  0
   43.6133   -4.2072   30.9268 C   0  0  0  0  0  0  0  0  0  0  0  0
   42.8716   -5.1344   30.1121 O   0  0  0  0  0  0  0  0  0  0  0  0
   50.8996   -6.4455   33.3038 H   0  0  0  0  0  0  0  0  0  0  0  0
   46.8328   -8.4492   32.4275 H   0  0  0  0  0  0  0  0  0  0  0  0
   42.2971   -4.6430   29.5044 H   0  0  0  0  0  0  0  0  0  0  0  0
   43.9167   -1.0836   29.9909 C   0  0  0  0  0  0  0  0  0  0  0  0
   43.9224   -2.3267   29.2979 O   0  0  0  0  0  0  0  0  0  0  0  0
   40.7385   -5.1091   36.0531 O   0  0  0  0  0  0  0  0  0  0  0  0
   39.3955   -5.2056   35.9645 C   0  0  0  0  0  0  0  0  0  0  0  0
   39.0433   -6.4900   35.7295 N   0  0  0  0  0  0  0  0  0  0  0  0
   38.5867   -4.2993   36.0773 O   0  0  0  0  0  0  0  0  0  0  0  0
   39.7371   -7.1835   35.6469 H   0  0  0  0  0  0  0  0  0  0  0  0
   38.0929   -6.7314   35.6410 H   0  0  0  0  0  0  0  0  0  0  0  0
 35 36  1  0
  1 36  1  0
  1  2  1  0
  2  3  1  0
  3  4  1  0
  3  5  1  0
  5  6  1  0
  6  7  2  0
  7  8  1  0
  8  9  2  0
  9 10  1  0
 10 11  1  0
 10 12  2  0
 12 13  1  0
  8 14  1  0
 14 15  1  0
 15 16  2  0
 15 17  1  0
 17 18  1  0
 17 19  2  0
 19 20  1  0
 20 21  1  0
 21 22  1  0
 22 23  1  0
 22 24  1  0
 24 37  1  0
 37 38  1  0
 38 39  1  0
 38 40  2  0
 24 25  1  0
 25 26  1  0
 25 27  2  0
 27 28  1  0
 28 29  1  0
 28 30  1  0
 30 31  1  0
 30  1  1  0
 12  6  1  0
 11 32  1  0
 14 33  1  0
 39 41  1  0
 39 42  1  0
 31 34  1  0
M  END
> <minimizedAffinity>
-6.74734

> <CNNscore>
0.2578107715

> <CNNaffinity>
5.0271096230

> <CNN_VS>
1.2960430384

> <CNNaffinity_variance>
1.8992934227

$$$$



 42 43  0  0  0  0  0  0  0  0999 V2000
   42.4115   -0.6475   33.7235 C   0  0  0  0  0  0  0  0  0  0  0  0
   41.7665   -2.0480   33.8032 C   0  0  0  0  0  0  0  0  0  0  0  0
   42.4453   -3.0595   34.7689 C   0  0  0  0  0  0  0  0  0  0  0  0
   42.3279   -2.6221   36.2321 C   0  0  0  0  0  0  0  0  0  0  0  0
   43.9262   -3.3830   34.4456 C   0  0  0  0  0  0  0  0  0  0  0  0
   44.1493   -3.9543   33.0609 C   0  0  0  0  0  0  0  0  0  0  0  0
   44.4645   -3.0621   32.0151 C   0  0  0  0  0  0  0  0  0  0  0  0
   44.5698   -3.4839   30.6875 C   0  0  0  0  0  0  0  0  0  0  0  0
   44.4527   -4.8448   30.4046 C   0  0  0  0  0  0  0  0  0  0  0  0
   44.1806   -5.7465   31.4316 C   0  0  0  0  0  0  0  0  0  0  0  0
   44.0630   -7.0657   31.0795 O   0  0  0  0  0  0  0  0  0  0  0  0
   44.0108   -5.3138   32.7532 C   0  0  0  0  0  0  0  0  0  0  0  0
   43.6255   -6.4891   33.9634 Cl  0  0  0  0  0  0  0  0  0  0  0  0
   44.7011   -2.5965   29.5986 N   0  0  0  0  0  0  0  0  0  0  0  0
   44.6304   -1.2190   29.6465 C   0  0  0  0  0  0  0  0  0  0  0  0
   44.7404   -0.5017   30.6358 O   0  0  0  0  0  0  0  0  0  0  0  0
   44.3500   -0.5879   28.3144 C   0  0  0  0  0  0  0  0  0  0  0  0
   45.1472    0.6441   28.0183 C   0  0  0  0  0  0  0  0  0  0  0  0
   43.3109   -1.0704   27.6027 C   0  0  0  0  0  0  0  0  0  0  0  0
   42.6898   -0.4615   26.3731 C   0  0  0  0  0  0  0  0  0  0  0  0
   41.5612    0.5161   26.7445 C   0  0  0  0  0  0  0  0  0  0  0  0
   40.3730   -0.1302   27.5072 C   0  0  0  0  0  0  0  0  0  0  0  0
   39.4655   -0.9068   26.5477 C   0  0  0  0  0  0  0  0  0  0  0  0
   39.6258    0.9310   28.3770 C   0  0  0  0  0  0  0  0  0  0  0  0
   39.5385    0.4423   29.8318 C   0  0  0  0  0  0  0  0  0  0  0  0
   38.5209   -0.6288   30.1183 C   0  0  0  0  0  0  0  0  0  0  0  0
   40.3937    0.9506   30.7453 C   0  0  0  0  0  0  0  0  0  0  0  0
   40.5964    0.5729   32.2085 C   0  0  0  0  0  0  0  0  0  0  0  0
   40.2454    1.7981   33.0545 C   0  0  0  0  0  0  0  0  0  0  0  0
   42.0524    0.0519   32.3776 C   0  0  0  0  0  0  0  0  0  0  0  0
   42.9946    1.1118   32.1282 O   0  0  0  0  0  0  0  0  0  0  0  0
   44.1822   -7.3248   30.1870 H   0  0  0  0  0  0  0  0  0  0  0  0
   44.8592   -3.0008   28.7150 H   0  0  0  0  0  0  0  0  0  0  0  0
   42.9014    1.7946   32.8108 H   0  0  0  0  0  0  0  0  0  0  0  0
   43.0484    0.8193   35.4969 C   0  0  0  0  0  0  0  0  0  0  0  0
   41.9968    0.0817   34.8838 O   0  0  0  0  0  0  0  0  0  0  0  0
   38.2927    1.2050   27.9176 O   0  0  0  0  0  0  0  0  0  0  0  0
   38.0799    2.4573   27.4624 C   0  0  0  0  0  0  0  0  0  0  0  0
   37.5523    2.4087   26.2181 N   0  0  0  0  0  0  0  0  0  0  0  0
   38.3097    3.5002   28.0520 O   0  0  0  0  0  0  0  0  0  0  0  0
   37.3865    1.5391   25.7873 H   0  0  0  0  0  0  0  0  0  0  0  0
   37.3340    3.2429   25.7431 H   0  0  0  0  0  0  0  0  0  0  0  0
 35 36  1  0
  1 36  1  0
  1  2  1  0
  2  3  1  0
  3  4  1  0
  3  5  1  0
  5  6  1  0
  6  7  2  0
  7  8  1  0
  8  9  2  0
  9 10  1  0
 10 11  1  0
 10 12  2  0
 12 13  1  0
  8 14  1  0
 14 15  1  0
 15 16  2  0
 15 17  1  0
 17 18  1  0
 17 19  2  0
 19 20  1  0
 20 21  1  0
 21 22  1  0
 22 23  1  0
 22 24  1  0
 24 37  1  0
 37 38  1  0
 38 39  1  0
 38 40  2  0
 24 25  1  0
 25 26  1  0
 25 27  2  0
 27 28  1  0
 28 29  1  0
 28 30  1  0
 30 31  1  0
 30  1  1  0
 12  6  1  0
 11 32  1  0
 14 33  1  0
 39 41  1  0
 39 42  1  0
 31 34  1  0
M  END
> <minimizedAffinity>
-7.48486

> <CNNscore>
0.2226269841

> <CNNaffinity>
5.5617604256

> <CNN_VS>
1.2381979227

> <CNNaffinity_variance>
0.7662517428

$$$$



 42 43  0  0  0  0  0  0  0  0999 V2000
   41.7989   -2.3582   31.2844 C   0  0  0  0  0  0  0  0  0  0  0  0
   42.8478   -1.3255   31.7500 C   0  0  0  0  0  0  0  0  0  0  0  0
   43.6874   -1.7186   32.9978 C   0  0  0  0  0  0  0  0  0  0  0  0
   44.5939   -2.9222   32.7226 C   0  0  0  0  0  0  0  0  0  0  0  0
   42.8662   -1.9766   34.2866 C   0  0  0  0  0  0  0  0  0  0  0  0
   42.0273   -0.7981   34.7351 C   0  0  0  0  0  0  0  0  0  0  0  0
   40.6887   -0.7282   34.2968 C   0  0  0  0  0  0  0  0  0  0  0  0
   39.8787    0.3786   34.5622 C   0  0  0  0  0  0  0  0  0  0  0  0
   40.3826    1.4013   35.3659 C   0  0  0  0  0  0  0  0  0  0  0  0
   41.6906    1.3304   35.8412 C   0  0  0  0  0  0  0  0  0  0  0  0
   42.1247    2.3772   36.6117 O   0  0  0  0  0  0  0  0  0  0  0  0
   42.5232    0.2505   35.5203 C   0  0  0  0  0  0  0  0  0  0  0  0
   44.1508    0.2602   36.1080 Cl  0  0  0  0  0  0  0  0  0  0  0  0
   38.6034    0.5635   33.9879 N   0  0  0  0  0  0  0  0  0  0  0  0
   38.0162   -0.2227   33.0174 C   0  0  0  0  0  0  0  0  0  0  0  0
   38.3330   -1.3617   32.6894 O   0  0  0  0  0  0  0  0  0  0  0  0
   36.8938    0.4605   32.2926 C   0  0  0  0  0  0  0  0  0  0  0  0
   35.6928   -0.3956   32.0370 C   0  0  0  0  0  0  0  0  0  0  0  0
   37.1311    1.6918   31.7960 C   0  0  0  0  0  0  0  0  0  0  0  0
   36.2642    2.4700   30.8414 C   0  0  0  0  0  0  0  0  0  0  0  0
   36.6314    2.1640   29.3789 C   0  0  0  0  0  0  0  0  0  0  0  0
   38.0859    2.5408   28.9867 C   0  0  0  0  0  0  0  0  0  0  0  0
   38.2186    4.0513   28.7666 C   0  0  0  0  0  0  0  0  0  0  0  0
   38.5820    1.6729   27.7861 C   0  0  0  0  0  0  0  0  0  0  0  0
   39.9091    0.9893   28.1523 C   0  0  0  0  0  0  0  0  0  0  0  0
   41.1371    1.8593   28.1366 C   0  0  0  0  0  0  0  0  0  0  0  0
   39.8975   -0.3131   28.5100 C   0  0  0  0  0  0  0  0  0  0  0  0
   41.0324   -1.1959   29.0170 C   0  0  0  0  0  0  0  0  0  0  0  0
   41.2345   -2.3187   27.9980 C   0  0  0  0  0  0  0  0  0  0  0  0
   40.6735   -1.6691   30.4547 C   0  0  0  0  0  0  0  0  0  0  0  0
   39.5154   -2.5244   30.4249 O   0  0  0  0  0  0  0  0  0  0  0  0
   41.5443    3.0857   36.8095 H   0  0  0  0  0  0  0  0  0  0  0  0
   38.0792    1.3311   34.3123 H   0  0  0  0  0  0  0  0  0  0  0  0
   39.7292   -3.3415   29.9478 H   0  0  0  0  0  0  0  0  0  0  0  0
   43.6612   -2.9211   29.8998 C   0  0  0  0  0  0  0  0  0  0  0  0
   42.4963   -3.3862   30.5725 O   0  0  0  0  0  0  0  0  0  0  0  0
   38.7877    2.4316   26.5838 O   0  0  0  0  0  0  0  0  0  0  0  0
   38.4599    1.8030   25.4357 C   0  0  0  0  0  0  0  0  0  0  0  0
   37.1145    1.7553   25.3077 N   0  0  0  0  0  0  0  0  0  0  0  0
   39.2281    1.3380   24.6098 O   0  0  0  0  0  0  0  0  0  0  0  0
   36.5396    2.1464   26.0046 H   0  0  0  0  0  0  0  0  0  0  0  0
   36.7100    1.3294   24.5175 H   0  0  0  0  0  0  0  0  0  0  0  0
 35 36  1  0
  1 36  1  0
  1  2  1  0
  2  3  1  0
  3  4  1  0
  3  5  1  0
  5  6  1  0
  6  7  2  0
  7  8  1  0
  8  9  2  0
  9 10  1  0
 10 11  1  0
 10 12  2  0
 12 13  1  0
  8 14  1  0
 14 15  1  0
 15 16  2  0
 15 17  1  0
 17 18  1  0
 17 19  2  0
 19 20  1  0
 20 21  1  0
 21 22  1  0
 22 23  1  0
 22 24  1  0
 24 37  1  0
 37 38  1  0
 38 39  1  0
 38 40  2  0
 24 25  1  0
 25 26  1  0
 25 27  2  0
 27 28  1  0
 28 29  1  0
 28 30  1  0
 30 31  1  0
 30  1  1  0
 12  6  1  0
 11 32  1  0
 14 33  1  0
 39 41  1  0
 39 42  1  0
 31 34  1  0
M  END
> <minimizedAffinity>
-8.54796

> <CNNscore>
0.2222718894

> <CNNaffinity>
5.6743030548

> <CNN_VS>
1.2612380981

> <CNNaffinity_variance>
0.5110488534

$$$$



 42 43  0  0  0  0  0  0  0  0999 V2000
   45.5211   -5.4990   32.9638 C   0  0  0  0  0  0  0  0  0  0  0  0
   44.5929   -5.0556   31.8125 C   0  0  0  0  0  0  0  0  0  0  0  0
   44.5890   -3.5362   31.4839 C   0  0  0  0  0  0  0  0  0  0  0  0
   45.9411   -3.0639   30.9409 C   0  0  0  0  0  0  0  0  0  0  0  0
   44.1520   -2.6136   32.6500 C   0  0  0  0  0  0  0  0  0  0  0  0
   42.7643   -2.9019   33.1837 C   0  0  0  0  0  0  0  0  0  0  0  0
   42.6411   -3.7834   34.2776 C   0  0  0  0  0  0  0  0  0  0  0  0
   41.3969   -4.1985   34.7586 C   0  0  0  0  0  0  0  0  0  0  0  0
   40.2437   -3.6487   34.1986 C   0  0  0  0  0  0  0  0  0  0  0  0
   40.3474   -2.7453   33.1427 C   0  0  0  0  0  0  0  0  0  0  0  0
   39.1736   -2.2572   32.6308 O   0  0  0  0  0  0  0  0  0  0  0  0
   41.5939   -2.3795   32.6184 C   0  0  0  0  0  0  0  0  0  0  0  0
   41.6365   -1.2907   31.2742 Cl  0  0  0  0  0  0  0  0  0  0  0  0
   41.2371   -5.2142   35.7247 N   0  0  0  0  0  0  0  0  0  0  0  0
   42.2309   -6.0168   36.2470 C   0  0  0  0  0  0  0  0  0  0  0  0
   43.4416   -5.8209   36.2121 O   0  0  0  0  0  0  0  0  0  0  0  0
   41.7124   -7.2725   36.8842 C   0  0  0  0  0  0  0  0  0  0  0  0
   42.3701   -7.6434   38.1768 C   0  0  0  0  0  0  0  0  0  0  0  0
   40.8518   -8.0248   36.1685 C   0  0  0  0  0  0  0  0  0  0  0  0
   40.3867   -9.4224   36.4831 C   0  0  0  0  0  0  0  0  0  0  0  0
   41.3191  -10.4743   35.8574 C   0  0  0  0  0  0  0  0  0  0  0  0
   41.3989  -10.4252   34.3075 C   0  0  0  0  0  0  0  0  0  0  0  0
   40.1572  -11.0633   33.6759 C   0  0  0  0  0  0  0  0  0  0  0  0
   42.7519  -11.0189   33.7999 C   0  0  0  0  0  0  0  0  0  0  0  0
   43.4526  -10.0047   32.8816 C   0  0  0  0  0  0  0  0  0  0  0  0
   42.8973   -9.8667   31.4897 C   0  0  0  0  0  0  0  0  0  0  0  0
   44.4734   -9.2710   33.3754 C   0  0  0  0  0  0  0  0  0  0  0  0
   45.2615   -8.1366   32.7299 C   0  0  0  0  0  0  0  0  0  0  0  0
   46.7173   -8.5923   32.6158 C   0  0  0  0  0  0  0  0  0  0  0  0
   45.0393   -6.8496   33.5749 C   0  0  0  0  0  0  0  0  0  0  0  0
   45.6123   -7.0076   34.8864 O   0  0  0  0  0  0  0  0  0  0  0  0
   38.3549   -2.5204   33.0028 H   0  0  0  0  0  0  0  0  0  0  0  0
   40.3240   -5.3658   36.0602 H   0  0  0  0  0  0  0  0  0  0  0  0
   46.5764   -7.0838   34.8109 H   0  0  0  0  0  0  0  0  0  0  0  0
   47.8491   -5.2117   33.4109 C   0  0  0  0  0  0  0  0  0  0  0  0
   46.8555   -5.5408   32.4465 O   0  0  0  0  0  0  0  0  0  0  0  0
   42.5955  -12.2469   33.0714 O   0  0  0  0  0  0  0  0  0  0  0  0
   41.5139  -12.3130   32.2674 C   0  0  0  0  0  0  0  0  0  0  0  0
   40.7816  -13.4078   32.5739 N   0  0  0  0  0  0  0  0  0  0  0  0
   41.2043  -11.5247   31.3893 O   0  0  0  0  0  0  0  0  0  0  0  0
   41.0771  -14.0122   33.2928 H   0  0  0  0  0  0  0  0  0  0  0  0
   39.9531  -13.6006   32.0782 H   0  0  0  0  0  0  0  0  0  0  0  0
 35 36  1  0
  1 36  1  0
  1  2  1  0
  2  3  1  0
  3  4  1  0
  3  5  1  0
  5  6  1  0
  6  7  2  0
  7  8  1  0
  8  9  2  0
  9 10  1  0
 10 11  1  0
 10 12  2  0
 12 13  1  0
  8 14  1  0
 14 15  1  0
 15 16  2  0
 15 17  1  0
 17 18  1  0
 17 19  2  0
 19 20  1  0
 20 21  1  0
 21 22  1  0
 22 23  1  0
 22 24  1  0
 24 37  1  0
 37 38  1  0
 38 39  1  0
 38 40  2  0
 24 25  1  0
 25 26  1  0
 25 27  2  0
 27 28  1  0
 28 29  1  0
 28 30  1  0
 30 31  1  0
 30  1  1  0
 12  6  1  0
 11 32  1  0
 14 33  1  0
 39 41  1  0
 39 42  1  0
 31 34  1  0
M  END
> <minimizedAffinity>
-6.79989

> <CNNscore>
0.2121864855

> <CNNaffinity>
5.3289852142

> <CNN_VS>
1.1307386160

> <CNNaffinity_variance>
0.8921604156

$$$$



 42 43  0  0  0  0  0  0  0  0999 V2000
   39.1663   -9.8205   37.0012 C   0  0  0  0  0  0  0  0  0  0  0  0
   40.0659  -10.5070   38.0514 C   0  0  0  0  0  0  0  0  0  0  0  0
   39.6669  -10.2928   39.5385 C   0  0  0  0  0  0  0  0  0  0  0  0
   38.3191  -10.9410   39.8693 C   0  0  0  0  0  0  0  0  0  0  0  0
   39.6574   -8.8163   40.0093 C   0  0  0  0  0  0  0  0  0  0  0  0
   40.9862   -8.1063   39.8548 C   0  0  0  0  0  0  0  0  0  0  0  0
   41.2181   -7.3774   38.6700 C   0  0  0  0  0  0  0  0  0  0  0  0
   42.4551   -6.7914   38.3904 C   0  0  0  0  0  0  0  0  0  0  0  0
   43.4592   -6.8505   39.3568 C   0  0  0  0  0  0  0  0  0  0  0  0
   43.2343   -7.5328   40.5508 C   0  0  0  0  0  0  0  0  0  0  0  0
   44.2697   -7.5641   41.4481 O   0  0  0  0  0  0  0  0  0  0  0  0
   42.0153   -8.1755   40.8026 C   0  0  0  0  0  0  0  0  0  0  0  0
   41.8316   -9.0441   42.2879 Cl  0  0  0  0  0  0  0  0  0  0  0  0
   42.7779   -6.2160   37.1433 N   0  0  0  0  0  0  0  0  0  0  0  0
   42.0038   -6.2399   36.0009 C   0  0  0  0  0  0  0  0  0  0  0  0
   40.8044   -6.4851   35.9191 O   0  0  0  0  0  0  0  0  0  0  0  0
   42.7797   -5.9629   34.7468 C   0  0  0  0  0  0  0  0  0  0  0  0
   42.0964   -5.0605   33.7672 C   0  0  0  0  0  0  0  0  0  0  0  0
   43.9092   -6.6714   34.5437 C   0  0  0  0  0  0  0  0  0  0  0  0
   44.7185   -6.7489   33.2758 C   0  0  0  0  0  0  0  0  0  0  0  0
   44.2261   -7.8904   32.3692 C   0  0  0  0  0  0  0  0  0  0  0  0
   44.3392   -9.3065   32.9960 C   0  0  0  0  0  0  0  0  0  0  0  0
   45.7849   -9.8116   32.9475 C   0  0  0  0  0  0  0  0  0  0  0  0
   43.2985  -10.2825   32.3593 C   0  0  0  0  0  0  0  0  0  0  0  0
   42.4578  -10.9397   33.4656 C   0  0  0  0  0  0  0  0  0  0  0  0
   43.1255  -12.0350   34.2527 C   0  0  0  0  0  0  0  0  0  0  0  0
   41.2111  -10.4770   33.7024 C   0  0  0  0  0  0  0  0  0  0  0  0
   40.2166  -10.8649   34.7910 C   0  0  0  0  0  0  0  0  0  0  0  0
   38.9867  -11.4589   34.1023 C   0  0  0  0  0  0  0  0  0  0  0  0
   39.9388   -9.6079   35.6642 C   0  0  0  0  0  0  0  0  0  0  0  0
   39.2706   -8.5968   34.8865 O   0  0  0  0  0  0  0  0  0  0  0  0
   45.0735   -7.1245   41.2514 H   0  0  0  0  0  0  0  0  0  0  0  0
   43.6430   -5.7502   37.0817 H   0  0  0  0  0  0  0  0  0  0  0  0
   38.3899   -8.9139   34.6322 H   0  0  0  0  0  0  0  0  0  0  0  0
   36.7901   -9.8444   36.7665 C   0  0  0  0  0  0  0  0  0  0  0  0
   37.9827  -10.6148   36.8662 O   0  0  0  0  0  0  0  0  0  0  0  0
   43.9024  -11.3260   31.5784 O   0  0  0  0  0  0  0  0  0  0  0  0
   43.2471  -11.6596   30.4470 C   0  0  0  0  0  0  0  0  0  0  0  0
   43.7249  -12.8313   29.9697 N   0  0  0  0  0  0  0  0  0  0  0  0
   42.3519  -11.0315   29.9063 O   0  0  0  0  0  0  0  0  0  0  0  0
   44.4495  -13.2979   30.4456 H   0  0  0  0  0  0  0  0  0  0  0  0
   43.3482  -13.2176   29.1462 H   0  0  0  0  0  0  0  0  0  0  0  0
 35 36  1  0
  1 36  1  0
  1  2  1  0
  2  3  1  0
  3  4  1  0
  3  5  1  0
  5  6  1  0
  6  7  2  0
  7  8  1  0
  8  9  2  0
  9 10  1  0
 10 11  1  0
 10 12  2  0
 12 13  1  0
  8 14  1  0
 14 15  1  0
 15 16  2  0
 15 17  1  0
 17 18  1  0
 17 19  2  0
 19 20  1  0
 20 21  1  0
 21 22  1  0
 22 23  1  0
 22 24  1  0
 24 37  1  0
 37 38  1  0
 38 39  1  0
 38 40  2  0
 24 25  1  0
 25 26  1  0
 25 27  2  0
 27 28  1  0
 28 29  1  0
 28 30  1  0
 30 31  1  0
 30  1  1  0
 12  6  1  0
 11 32  1  0
 14 33  1  0
 39 41  1  0
 39 42  1  0
 31 34  1  0
M  END
> <minimizedAffinity>
-8.33611

> <CNNscore>
0.2009224743

> <CNNaffinity>
6.0453124046

> <CNN_VS>
1.2146390676

> <CNNaffinity_variance>
0.5569158196

$$$$



 42 43  0  0  0  0  0  0  0  0999 V2000
   46.0657   -4.6746   31.7856 C   0  0  0  0  0  0  0  0  0  0  0  0
   44.9678   -4.1533   30.8335 C   0  0  0  0  0  0  0  0  0  0  0  0
   44.7422   -2.6152   30.8269 C   0  0  0  0  0  0  0  0  0  0  0  0
   45.9576   -1.8601   30.2804 C   0  0  0  0  0  0  0  0  0  0  0  0
   44.3290   -2.0067   32.1911 C   0  0  0  0  0  0  0  0  0  0  0  0
   43.0550   -2.5864   32.7695 C   0  0  0  0  0  0  0  0  0  0  0  0
   43.1629   -3.6709   33.6645 C   0  0  0  0  0  0  0  0  0  0  0  0
   42.0400   -4.3432   34.1532 C   0  0  0  0  0  0  0  0  0  0  0  0
   40.7733   -3.8647   33.8185 C   0  0  0  0  0  0  0  0  0  0  0  0
   40.6476   -2.7690   32.9668 C   0  0  0  0  0  0  0  0  0  0  0  0
   39.3734   -2.3626   32.6681 O   0  0  0  0  0  0  0  0  0  0  0  0
   41.7740   -2.1359   32.4255 C   0  0  0  0  0  0  0  0  0  0  0  0
   41.5334   -0.8131   31.3362 Cl  0  0  0  0  0  0  0  0  0  0  0  0
   42.1139   -5.5386   34.8989 N   0  0  0  0  0  0  0  0  0  0  0  0
   43.2501   -6.2779   35.1582 C   0  0  0  0  0  0  0  0  0  0  0  0
   44.4164   -5.9093   35.0620 O   0  0  0  0  0  0  0  0  0  0  0  0
   42.9628   -7.6935   35.5643 C   0  0  0  0  0  0  0  0  0  0  0  0
   43.8008   -8.2101   36.6920 C   0  0  0  0  0  0  0  0  0  0  0  0
   42.1257   -8.4077   34.7843 C   0  0  0  0  0  0  0  0  0  0  0  0
   41.8722   -9.8912   34.8421 C   0  0  0  0  0  0  0  0  0  0  0  0
   42.8501  -10.6595   33.9361 C   0  0  0  0  0  0  0  0  0  0  0  0
   42.7499  -10.3011   32.4286 C   0  0  0  0  0  0  0  0  0  0  0  0
   41.5326  -10.9746   31.7866 C   0  0  0  0  0  0  0  0  0  0  0  0
   44.1001  -10.5877   31.6966 C   0  0  0  0  0  0  0  0  0  0  0  0
   44.5651   -9.3264   30.9513 C   0  0  0  0  0  0  0  0  0  0  0  0
   43.8453   -9.0022   29.6700 C   0  0  0  0  0  0  0  0  0  0  0  0
   45.5377   -8.5647   31.4974 C   0  0  0  0  0  0  0  0  0  0  0  0
   46.1048   -7.2270   31.0353 C   0  0  0  0  0  0  0  0  0  0  0  0
   47.5833   -7.4411   30.7067 C   0  0  0  0  0  0  0  0  0  0  0  0
   45.8231   -6.1722   32.1434 C   0  0  0  0  0  0  0  0  0  0  0  0
   46.5539   -6.4977   33.3407 O   0  0  0  0  0  0  0  0  0  0  0  0
   38.6395   -2.8060   33.0459 H   0  0  0  0  0  0  0  0  0  0  0  0
   41.2693   -5.8800   35.2722 H   0  0  0  0  0  0  0  0  0  0  0  0
   47.5056   -6.4204   33.1697 H   0  0  0  0  0  0  0  0  0  0  0  0
   47.2880   -4.5210   29.7400 C   0  0  0  0  0  0  0  0  0  0  0  0
   47.3291   -4.4261   31.1595 O   0  0  0  0  0  0  0  0  0  0  0  0
   44.0141  -11.6614   30.7463 O   0  0  0  0  0  0  0  0  0  0  0  0
   45.1933  -12.1854   30.3518 C   0  0  0  0  0  0  0  0  0  0  0  0
   45.8000  -12.7880   31.3995 N   0  0  0  0  0  0  0  0  0  0  0  0
   45.6736  -12.1477   29.2310 O   0  0  0  0  0  0  0  0  0  0  0  0
   45.3681  -12.7894   32.2842 H   0  0  0  0  0  0  0  0  0  0  0  0
   46.6736  -13.2253   31.2775 H   0  0  0  0  0  0  0  0  0  0  0  0
 35 36  1  0
  1 36  1  0
  1  2  1  0
  2  3  1  0
  3  4  1  0
  3  5  1  0
  5  6  1  0
  6  7  2  0
  7  8  1  0
  8  9  2  0
  9 10  1  0
 10 11  1  0
 10 12  2  0
 12 13  1  0
  8 14  1  0
 14 15  1  0
 15 16  2  0
 15 17  1  0
 17 18  1  0
 17 19  2  0
 19 20  1  0
 20 21  1  0
 21 22  1  0
 22 23  1  0
 22 24  1  0
 24 37  1  0
 37 38  1  0
 38 39  1  0
 38 40  2  0
 24 25  1  0
 25 26  1  0
 25 27  2  0
 27 28  1  0
 28 29  1  0
 28 30  1  0
 30 31  1  0
 30  1  1  0
 12  6  1  0
 11 32  1  0
 14 33  1  0
 39 41  1  0
 39 42  1  0
 31 34  1  0
M  END
> <minimizedAffinity>
-7.20342

> <CNNscore>
0.1970283389

> <CNNaffinity>
5.6062941551

> <CNN_VS>
1.1045988798

> <CNNaffinity_variance>
0.3650356233

$$$$



 42 43  0  0  0  0  0  0  0  0999 V2000
   45.2596   -3.1639   31.4417 C   0  0  0  0  0  0  0  0  0  0  0  0
   45.7561   -4.2127   30.4234 C   0  0  0  0  0  0  0  0  0  0  0  0
   47.2821   -4.5089   30.4356 C   0  0  0  0  0  0  0  0  0  0  0  0
   47.7274   -5.1681   31.7444 C   0  0  0  0  0  0  0  0  0  0  0  0
   48.1899   -3.2881   30.1392 C   0  0  0  0  0  0  0  0  0  0  0  0
   47.9297   -2.6311   28.7997 C   0  0  0  0  0  0  0  0  0  0  0  0
   47.0272   -1.5484   28.7530 C   0  0  0  0  0  0  0  0  0  0  0  0
   46.6374   -0.9600   27.5474 C   0  0  0  0  0  0  0  0  0  0  0  0
   47.2330   -1.3968   26.3642 C   0  0  0  0  0  0  0  0  0  0  0  0
   48.1571   -2.4393   26.3958 C   0  0  0  0  0  0  0  0  0  0  0  0
   48.6906   -2.8276   25.1947 O   0  0  0  0  0  0  0  0  0  0  0  0
   48.4986   -3.0721   27.5981 C   0  0  0  0  0  0  0  0  0  0  0  0
   49.6164   -4.3920   27.5475 Cl  0  0  0  0  0  0  0  0  0  0  0  0
   45.6048   -0.0037   27.4480 N   0  0  0  0  0  0  0  0  0  0  0  0
   44.7619    0.4056   28.4613 C   0  0  0  0  0  0  0  0  0  0  0  0
   44.9234    0.2599   29.6687 O   0  0  0  0  0  0  0  0  0  0  0  0
   43.5074    1.0638   27.9665 C   0  0  0  0  0  0  0  0  0  0  0  0
   43.0880    2.2803   28.7313 C   0  0  0  0  0  0  0  0  0  0  0  0
   42.7970    0.4179   27.0193 C   0  0  0  0  0  0  0  0  0  0  0  0
   41.4066    0.7470   26.5428 C   0  0  0  0  0  0  0  0  0  0  0  0
   40.3428    0.0146   27.3790 C   0  0  0  0  0  0  0  0  0  0  0  0
   40.4252   -1.5347   27.3138 C   0  0  0  0  0  0  0  0  0  0  0  0
   39.8381   -2.0582   25.9990 C   0  0  0  0  0  0  0  0  0  0  0  0
   39.8045   -2.1802   28.5939 C   0  0  0  0  0  0  0  0  0  0  0  0
   40.8187   -3.1402   29.2360 C   0  0  0  0  0  0  0  0  0  0  0  0
   41.0048   -4.4701   28.5565 C   0  0  0  0  0  0  0  0  0  0  0  0
   41.5111   -2.7309   30.3211 C   0  0  0  0  0  0  0  0  0  0  0  0
   42.6367   -3.4253   31.0796 C   0  0  0  0  0  0  0  0  0  0  0  0
   42.1418   -3.6861   32.5033 C   0  0  0  0  0  0  0  0  0  0  0  0
   43.9098   -2.5373   30.9780 C   0  0  0  0  0  0  0  0  0  0  0  0
   43.7052   -1.2895   31.6670 O   0  0  0  0  0  0  0  0  0  0  0  0
   48.4428   -2.3849   24.4069 H   0  0  0  0  0  0  0  0  0  0  0  0
   45.4720    0.4138   26.5664 H   0  0  0  0  0  0  0  0  0  0  0  0
   43.6029   -1.4576   32.6168 H   0  0  0  0  0  0  0  0  0  0  0  0
   44.8671   -5.1901   32.6428 C   0  0  0  0  0  0  0  0  0  0  0  0
   45.1911   -3.8063   32.7195 O   0  0  0  0  0  0  0  0  0  0  0  0
   38.5985   -2.9152   28.3315 O   0  0  0  0  0  0  0  0  0  0  0  0
   37.4512   -2.2913   28.6707 C   0  0  0  0  0  0  0  0  0  0  0  0
   37.1332   -2.5825   29.9525 N   0  0  0  0  0  0  0  0  0  0  0  0
   36.7754   -1.5640   27.9618 O   0  0  0  0  0  0  0  0  0  0  0  0
   37.7141   -3.1761   30.4811 H   0  0  0  0  0  0  0  0  0  0  0  0
   36.3208   -2.2009   30.3570 H   0  0  0  0  0  0  0  0  0  0  0  0
 35 36  1  0
  1 36  1  0
  1  2  1  0
  2  3  1  0
  3  4  1  0
  3  5  1  0
  5  6  1  0
  6  7  2  0
  7  8  1  0
  8  9  2  0
  9 10  1  0
 10 11  1  0
 10 12  2  0
 12 13  1  0
  8 14  1  0
 14 15  1  0
 15 16  2  0
 15 17  1  0
 17 18  1  0
 17 19  2  0
 19 20  1  0
 20 21  1  0
 21 22  1  0
 22 23  1  0
 22 24  1  0
 24 37  1  0
 37 38  1  0
 38 39  1  0
 38 40  2  0
 24 25  1  0
 25 26  1  0
 25 27  2  0
 27 28  1  0
 28 29  1  0
 28 30  1  0
 30 31  1  0
 30  1  1  0
 12  6  1  0
 11 32  1  0
 14 33  1  0
 39 41  1  0
 39 42  1  0
 31 34  1  0
M  END
> <minimizedAffinity>
-7.00937

> <CNNscore>
0.1928656101

> <CNNaffinity>
5.3690476418

> <CNN_VS>
1.0355046988

> <CNNaffinity_variance>
1.0131994486

$$$$
