


 31 34  0  0  0  0  0  0  0  0999 V2000
   22.0579   11.0997   21.8425 C   0  0  0  0  0  0  0  0  0  0  0  0
   22.5080   10.5037   23.1157 N   0  0  0  0  0  0  0  0  0  0  0  0
   22.7478   11.4829   24.0232 C   0  0  0  0  0  0  0  0  0  0  0  0
   23.2933   11.3220   25.1689 N   0  0  0  0  0  0  0  0  0  0  0  0
   22.3622   12.6949   23.5692 N   0  0  0  0  0  0  0  0  0  0  0  0
   22.4950   13.9356   24.2956 C   0  0  0  0  0  0  0  0  0  0  0  0
   21.9615   12.6092   22.2542 C   0  0  0  0  0  0  0  0  0  0  0  0
   21.6377   13.5464   21.5333 O   0  0  0  0  0  0  0  0  0  0  0  0
   22.6177    9.5395   23.2815 H   0  0  0  0  0  0  0  0  0  0  0  0
   23.5608   10.4219   25.4647 H   0  0  0  0  0  0  0  0  0  0  0  0
   20.6604   10.5907   21.4467 C   0  0  0  0  0  0  0  0  0  0  0  0
   19.6495   10.3404   22.3938 C   0  0  0  0  0  0  0  0  0  0  0  0
   18.3913    9.8755   21.9985 C   0  0  0  0  0  0  0  0  0  0  0  0
   18.1247    9.6570   20.6500 C   0  0  0  0  0  0  0  0  0  0  0  0
   16.4239    9.0273   20.1187 Br  0  0  0  0  0  0  0  0  0  0  0  0
   19.1023    9.9031   19.6915 C   0  0  0  0  0  0  0  0  0  0  0  0
   20.3593   10.3681   20.0870 C   0  0  0  0  0  0  0  0  0  0  0  0
   25.4957   10.5932   20.1015 C   0  0  0  0  0  0  0  0  0  0  0  0
   25.0709   10.1606   18.8375 C   0  0  0  0  0  0  0  0  0  0  0  0
   23.7147   10.0332   18.5431 C   0  0  0  0  0  0  0  0  0  0  0  0
   22.7588   10.3411   19.5096 C   0  0  0  0  0  0  0  0  0  0  0  0
   23.1376   10.7933   20.7891 C   0  0  0  0  0  0  0  0  0  0  0  0
   24.5151   10.8996   21.0647 C   0  0  0  0  0  0  0  0  0  0  0  0
   28.9842    9.8168   21.3755 C   0  0  0  0  0  0  0  0  0  0  0  0
   29.6624   10.9805   21.0109 C   0  0  0  0  0  0  0  0  0  0  0  0
   28.9947   12.0140   20.3573 C   0  0  0  0  0  0  0  0  0  0  0  0
   27.6374   11.8865   20.0625 C   0  0  0  0  0  0  0  0  0  0  0  0
   26.9292   10.7261   20.4148 C   0  0  0  0  0  0  0  0  0  0  0  0
   27.6241    9.6946   21.0763 C   0  0  0  0  0  0  0  0  0  0  0  0
   29.9210    9.0351   23.4174 C   0  0  0  0  0  0  0  0  0  0  0  0
   29.7555    8.8841   22.0134 O   0  0  0  0  0  0  0  0  0  0  0  0
 30 31  1  0
 31 24  1  0
 24 25  2  0
 25 26  1  0
 26 27  2  0
 27 28  1  0
 28 18  1  0
 18 19  2  0
 19 20  1  0
 20 21  2  0
 21 22  1  0
  1 22  1  0
  1 11  1  0
 11 12  2  0
 12 13  1  0
 13 14  2  0
 14 15  1  0
 14 16  1  0
 16 17  2  0
  1  2  1  0
  2  3  1  0
  3  4  2  0
  3  5  1  0
  5  6  1  0
  5  7  1  0
  7  8  2  0
 22 23  2  0
 28 29  2  0
 29 24  1  0
 23 18  1  0
  7  1  1  0
 17 11  1  0
  2  9  1  0
  4 10  1  0
M  END
> <minimizedAffinity>
-9.06472

> <CNNscore>
0.9454466105

> <CNNaffinity>
6.8820548058

> <CNN_VS>
6.5066151619

> <CNNaffinity_variance>
0.1144713983

$$$$



 31 34  0  0  0  0  0  0  0  0999 V2000
   20.8580   11.9818   24.8892 C   0  0  0  0  0  0  0  0  0  0  0  0
   21.2770   10.5976   24.5939 N   0  0  0  0  0  0  0  0  0  0  0  0
   22.4451   10.6071   23.9045 C   0  0  0  0  0  0  0  0  0  0  0  0
   23.0007    9.5905   23.3625 N   0  0  0  0  0  0  0  0  0  0  0  0
   22.9704   11.8486   23.8219 N   0  0  0  0  0  0  0  0  0  0  0  0
   24.1992   12.1879   23.1442 C   0  0  0  0  0  0  0  0  0  0  0  0
   22.0955   12.7752   24.3444 C   0  0  0  0  0  0  0  0  0  0  0  0
   22.2411   13.9923   24.3384 O   0  0  0  0  0  0  0  0  0  0  0  0
   20.7825    9.7883   24.8580 H   0  0  0  0  0  0  0  0  0  0  0  0
   22.5868    8.7010   23.4449 H   0  0  0  0  0  0  0  0  0  0  0  0
   20.7293   12.2190   26.4043 C   0  0  0  0  0  0  0  0  0  0  0  0
   21.8088   12.6520   27.1973 C   0  0  0  0  0  0  0  0  0  0  0  0
   21.6565   12.8549   28.5725 C   0  0  0  0  0  0  0  0  0  0  0  0
   20.4217   12.6305   29.1743 C   0  0  0  0  0  0  0  0  0  0  0  0
   20.2190   12.9040   31.0332 Br  0  0  0  0  0  0  0  0  0  0  0  0
   19.3355   12.2095   28.4140 C   0  0  0  0  0  0  0  0  0  0  0  0
   19.4881   12.0075   27.0397 C   0  0  0  0  0  0  0  0  0  0  0  0
   17.6563   11.4508   22.7506 C   0  0  0  0  0  0  0  0  0  0  0  0
   17.1220   12.7465   22.7802 C   0  0  0  0  0  0  0  0  0  0  0  0
   17.7690   13.7720   23.4672 C   0  0  0  0  0  0  0  0  0  0  0  0
   18.9663   13.5182   24.1343 C   0  0  0  0  0  0  0  0  0  0  0  0
   19.5488   12.2354   24.1205 C   0  0  0  0  0  0  0  0  0  0  0  0
   18.8668   11.2140   23.4304 C   0  0  0  0  0  0  0  0  0  0  0  0
   16.9027    8.7537   20.1908 C   0  0  0  0  0  0  0  0  0  0  0  0
   15.6667    8.2950   20.6480 C   0  0  0  0  0  0  0  0  0  0  0  0
   15.0772    8.8565   21.7786 C   0  0  0  0  0  0  0  0  0  0  0  0
   15.7263    9.8848   22.4619 C   0  0  0  0  0  0  0  0  0  0  0  0
   16.9721   10.3652   22.0267 C   0  0  0  0  0  0  0  0  0  0  0  0
   17.5487    9.7839   20.8804 C   0  0  0  0  0  0  0  0  0  0  0  0
   17.2798    6.7011   19.0494 C   0  0  0  0  0  0  0  0  0  0  0  0
   17.3664    8.1200   19.0703 O   0  0  0  0  0  0  0  0  0  0  0  0
 30 31  1  0
 31 24  1  0
 24 25  2  0
 25 26  1  0
 26 27  2  0
 27 28  1  0
 28 18  1  0
 18 19  2  0
 19 20  1  0
 20 21  2  0
 21 22  1  0
  1 22  1  0
  1 11  1  0
 11 12  2  0
 12 13  1  0
 13 14  2  0
 14 15  1  0
 14 16  1  0
 16 17  2  0
  1  2  1  0
  2  3  1  0
  3  4  2  0
  3  5  1  0
  5  6  1  0
  5  7  1  0
  7  8  2  0
 22 23  2  0
 28 29  2  0
 29 24  1  0
 23 18  1  0
  7  1  1  0
 17 11  1  0
  2  9  1  0
  4 10  1  0
M  END
> <minimizedAffinity>
-7.78869

> <CNNscore>
0.8902999163

> <CNNaffinity>
6.8447861671

> <CNN_VS>
6.0939126015

> <CNNaffinity_variance>
0.0243519265

$$$$



 31 34  0  0  0  0  0  0  0  0999 V2000
   26.1937   12.2240   20.0512 C   0  0  0  0  0  0  0  0  0  0  0  0
   26.8174   12.7731   18.8313 N   0  0  0  0  0  0  0  0  0  0  0  0
   26.7533   14.1278   18.8512 C   0  0  0  0  0  0  0  0  0  0  0  0
   27.0610   14.9043   17.8825 N   0  0  0  0  0  0  0  0  0  0  0  0
   26.2903   14.5923   20.0318 N   0  0  0  0  0  0  0  0  0  0  0  0
   26.0974   15.9852   20.3591 C   0  0  0  0  0  0  0  0  0  0  0  0
   25.8829   13.5476   20.8316 C   0  0  0  0  0  0  0  0  0  0  0  0
   25.3375   13.6430   21.9252 O   0  0  0  0  0  0  0  0  0  0  0  0
   27.2199   12.2363   18.1109 H   0  0  0  0  0  0  0  0  0  0  0  0
   27.3955   14.5275   17.0367 H   0  0  0  0  0  0  0  0  0  0  0  0
   27.1925   11.3789   20.8616 C   0  0  0  0  0  0  0  0  0  0  0  0
   27.3299    9.9895   20.6813 C   0  0  0  0  0  0  0  0  0  0  0  0
   28.2464    9.2522   21.4375 C   0  0  0  0  0  0  0  0  0  0  0  0
   29.0410    9.8939   22.3830 C   0  0  0  0  0  0  0  0  0  0  0  0
   30.2778    8.8949   23.4047 Br  0  0  0  0  0  0  0  0  0  0  0  0
   28.9321   11.2671   22.5771 C   0  0  0  0  0  0  0  0  0  0  0  0
   28.0164   12.0035   21.8207 C   0  0  0  0  0  0  0  0  0  0  0  0
   22.5115   11.0609   19.6095 C   0  0  0  0  0  0  0  0  0  0  0  0
   22.6952    9.9916   18.7216 C   0  0  0  0  0  0  0  0  0  0  0  0
   23.9680    9.6453   18.2720 C   0  0  0  0  0  0  0  0  0  0  0  0
   25.0811   10.3624   18.7073 C   0  0  0  0  0  0  0  0  0  0  0  0
   24.9473   11.4356   19.6104 C   0  0  0  0  0  0  0  0  0  0  0  0
   23.6482   11.7733   20.0381 C   0  0  0  0  0  0  0  0  0  0  0  0
   18.7483   11.0743   20.0929 C   0  0  0  0  0  0  0  0  0  0  0  0
   18.6020   12.1334   20.9896 C   0  0  0  0  0  0  0  0  0  0  0  0
   19.7153   12.8425   21.4354 C   0  0  0  0  0  0  0  0  0  0  0  0
   20.9879   12.4924   20.9844 C   0  0  0  0  0  0  0  0  0  0  0  0
   21.1662   11.4296   20.0838 C   0  0  0  0  0  0  0  0  0  0  0  0
   20.0264   10.7275   19.6452 C   0  0  0  0  0  0  0  0  0  0  0  0
   17.1604    9.3546   20.5161 C   0  0  0  0  0  0  0  0  0  0  0  0
   17.5766   10.4662   19.7335 O   0  0  0  0  0  0  0  0  0  0  0  0
 30 31  1  0
 31 24  1  0
 24 25  2  0
 25 26  1  0
 26 27  2  0
 27 28  1  0
 28 18  1  0
 18 19  2  0
 19 20  1  0
 20 21  2  0
 21 22  1  0
  1 22  1  0
  1 11  1  0
 11 12  2  0
 12 13  1  0
 13 14  2  0
 14 15  1  0
 14 16  1  0
 16 17  2  0
  1  2  1  0
  2  3  1  0
  3  4  2  0
  3  5  1  0
  5  6  1  0
  5  7  1  0
  7  8  2  0
 22 23  2  0
 28 29  2  0
 29 24  1  0
 23 18  1  0
  7  1  1  0
 17 11  1  0
  2  9  1  0
  4 10  1  0
M  END
> <minimizedAffinity>
-9.53366

> <CNNscore>
0.7384837866

> <CNNaffinity>
6.1503376961

> <CNN_VS>
4.5419244766

> <CNNaffinity_variance>
0.2884358168

$$$$



 31 34  0  0  0  0  0  0  0  0999 V2000
   25.8311   12.3688   19.6349 C   0  0  0  0  0  0  0  0  0  0  0  0
   26.3627   12.6853   18.2948 N   0  0  0  0  0  0  0  0  0  0  0  0
   26.3095   14.0240   18.0826 C   0  0  0  0  0  0  0  0  0  0  0  0
   26.5470   14.6142   16.9729 N   0  0  0  0  0  0  0  0  0  0  0  0
   25.9419   14.6954   19.1951 N   0  0  0  0  0  0  0  0  0  0  0  0
   25.7842   16.1276   19.2878 C   0  0  0  0  0  0  0  0  0  0  0  0
   25.5903   13.8138   20.1932 C   0  0  0  0  0  0  0  0  0  0  0  0
   25.1312   14.1084   21.2910 O   0  0  0  0  0  0  0  0  0  0  0  0
   26.7049   12.0236   17.6511 H   0  0  0  0  0  0  0  0  0  0  0  0
   26.8128   14.0896   16.1834 H   0  0  0  0  0  0  0  0  0  0  0  0
   26.8836   11.6573   20.5035 C   0  0  0  0  0  0  0  0  0  0  0  0
   27.6173   12.3247   21.5025 C   0  0  0  0  0  0  0  0  0  0  0  0
   28.5684   11.6469   22.2717 C   0  0  0  0  0  0  0  0  0  0  0  0
   28.7977   10.2913   22.0550 C   0  0  0  0  0  0  0  0  0  0  0  0
   30.0847    9.3782   23.0947 Br  0  0  0  0  0  0  0  0  0  0  0  0
   28.0819    9.6046   21.0797 C   0  0  0  0  0  0  0  0  0  0  0  0
   27.1311   10.2823   20.3118 C   0  0  0  0  0  0  0  0  0  0  0  0
   22.1220   11.2092   19.7015 C   0  0  0  0  0  0  0  0  0  0  0  0
   22.2247   10.0119   18.9797 C   0  0  0  0  0  0  0  0  0  0  0  0
   23.4523    9.5796   18.4813 C   0  0  0  0  0  0  0  0  0  0  0  0
   24.6008   10.3382   18.7009 C   0  0  0  0  0  0  0  0  0  0  0  0
   24.5491   11.5411   19.4327 C   0  0  0  0  0  0  0  0  0  0  0  0
   23.2934   11.9619   19.9131 C   0  0  0  0  0  0  0  0  0  0  0  0
   19.5283   12.9566   21.8497 C   0  0  0  0  0  0  0  0  0  0  0  0
   18.3497   12.5440   21.2269 C   0  0  0  0  0  0  0  0  0  0  0  0
   18.3922   11.7022   20.1176 C   0  0  0  0  0  0  0  0  0  0  0  0
   19.6217   11.2678   19.6224 C   0  0  0  0  0  0  0  0  0  0  0  0
   20.8244   11.6686   20.2269 C   0  0  0  0  0  0  0  0  0  0  0  0
   20.7574   12.5187   21.3481 C   0  0  0  0  0  0  0  0  0  0  0  0
   20.4363   14.6112   23.2974 C   0  0  0  0  0  0  0  0  0  0  0  0
   19.3451   13.7778   22.9286 O   0  0  0  0  0  0  0  0  0  0  0  0
 30 31  1  0
 31 24  1  0
 24 25  2  0
 25 26  1  0
 26 27  2  0
 27 28  1  0
 28 18  1  0
 18 19  2  0
 19 20  1  0
 20 21  2  0
 21 22  1  0
  1 22  1  0
  1 11  1  0
 11 12  2  0
 12 13  1  0
 13 14  2  0
 14 15  1  0
 14 16  1  0
 16 17  2  0
  1  2  1  0
  2  3  1  0
  3  4  2  0
  3  5  1  0
  5  6  1  0
  5  7  1  0
  7  8  2  0
 22 23  2  0
 28 29  2  0
 29 24  1  0
 23 18  1  0
  7  1  1  0
 17 11  1  0
  2  9  1  0
  4 10  1  0
M  END
> <minimizedAffinity>
-9.79074

> <CNNscore>
0.7088542581

> <CNNaffinity>
6.1905636787

> <CNN_VS>
4.3882074356

> <CNNaffinity_variance>
0.3274461031

$$$$



 31 34  0  0  0  0  0  0  0  0999 V2000
   18.7715   11.2310   23.5980 C   0  0  0  0  0  0  0  0  0  0  0  0
   19.6127   10.1256   24.0973 N   0  0  0  0  0  0  0  0  0  0  0  0
   20.5658   10.6123   24.9306 C   0  0  0  0  0  0  0  0  0  0  0  0
   21.5474    9.9481   25.4115 N   0  0  0  0  0  0  0  0  0  0  0  0
   20.3831   11.9247   25.1918 N   0  0  0  0  0  0  0  0  0  0  0  0
   21.2347   12.7312   26.0338 C   0  0  0  0  0  0  0  0  0  0  0  0
   19.3568   12.4282   24.4236 C   0  0  0  0  0  0  0  0  0  0  0  0
   19.0040   13.6007   24.3653 O   0  0  0  0  0  0  0  0  0  0  0  0
   19.4989    9.1767   23.8608 H   0  0  0  0  0  0  0  0  0  0  0  0
   21.6466    8.9922   25.1979 H   0  0  0  0  0  0  0  0  0  0  0  0
   17.2936   11.0275   23.9759 C   0  0  0  0  0  0  0  0  0  0  0  0
   16.3358   12.0533   23.8658 C   0  0  0  0  0  0  0  0  0  0  0  0
   15.0011   11.8337   24.2210 C   0  0  0  0  0  0  0  0  0  0  0  0
   14.6043   10.5844   24.6887 C   0  0  0  0  0  0  0  0  0  0  0  0
   12.8004   10.2908   25.1694 Br  0  0  0  0  0  0  0  0  0  0  0  0
   15.5277    9.5500   24.8006 C   0  0  0  0  0  0  0  0  0  0  0  0
   16.8611    9.7698   24.4450 C   0  0  0  0  0  0  0  0  0  0  0  0
   20.4816   11.2924   20.1083 C   0  0  0  0  0  0  0  0  0  0  0  0
   19.3585   11.4576   19.2858 C   0  0  0  0  0  0  0  0  0  0  0  0
   18.0793   11.5493   19.8313 C   0  0  0  0  0  0  0  0  0  0  0  0
   17.9028   11.4809   21.2122 C   0  0  0  0  0  0  0  0  0  0  0  0
   19.0029   11.3296   22.0794 C   0  0  0  0  0  0  0  0  0  0  0  0
   20.2832   11.2255   21.5010 C   0  0  0  0  0  0  0  0  0  0  0  0
   23.8345   12.2581   18.6181 C   0  0  0  0  0  0  0  0  0  0  0  0
   24.4135   11.0016   18.4365 C   0  0  0  0  0  0  0  0  0  0  0  0
   23.7223    9.8454   18.7925 C   0  0  0  0  0  0  0  0  0  0  0  0
   22.4415    9.9418   19.3362 C   0  0  0  0  0  0  0  0  0  0  0  0
   21.8343   11.1929   19.5329 C   0  0  0  0  0  0  0  0  0  0  0  0
   22.5509   12.3483   19.1644 C   0  0  0  0  0  0  0  0  0  0  0  0
   24.5387   14.4981   18.9989 C   0  0  0  0  0  0  0  0  0  0  0  0
   24.6179   13.3085   18.2243 O   0  0  0  0  0  0  0  0  0  0  0  0
 30 31  1  0
 31 24  1  0
 24 25  2  0
 25 26  1  0
 26 27  2  0
 27 28  1  0
 28 18  1  0
 18 19  2  0
 19 20  1  0
 20 21  2  0
 21 22  1  0
  1 22  1  0
  1 11  1  0
 11 12  2  0
 12 13  1  0
 13 14  2  0
 14 15  1  0
 14 16  1  0
 16 17  2  0
  1  2  1  0
  2  3  1  0
  3  4  2  0
  3  5  1  0
  5  6  1  0
  5  7  1  0
  7  8  2  0
 22 23  2  0
 28 29  2  0
 29 24  1  0
 23 18  1  0
  7  1  1  0
 17 11  1  0
  2  9  1  0
  4 10  1  0
M  END
> <minimizedAffinity>
-9.32047

> <CNNscore>
0.6933305860

> <CNNaffinity>
6.0715985298

> <CNN_VS>
4.2096247673

> <CNNaffinity_variance>
0.1962346286

$$$$



 31 34  0  0  0  0  0  0  0  0999 V2000
   21.3332   11.5016   21.9453 C   0  0  0  0  0  0  0  0  0  0  0  0
   22.1775   10.4356   22.5194 N   0  0  0  0  0  0  0  0  0  0  0  0
   23.2315   10.1921   21.7011 C   0  0  0  0  0  0  0  0  0  0  0  0
   24.0657    9.2302   21.8239 N   0  0  0  0  0  0  0  0  0  0  0  0
   23.3006   11.0851   20.6904 N   0  0  0  0  0  0  0  0  0  0  0  0
   24.3009   11.0867   19.6494 C   0  0  0  0  0  0  0  0  0  0  0  0
   22.1959   11.9076   20.7009 C   0  0  0  0  0  0  0  0  0  0  0  0
   21.9209   12.7615   19.8655 O   0  0  0  0  0  0  0  0  0  0  0  0
   22.0019    9.9708   23.3693 H   0  0  0  0  0  0  0  0  0  0  0  0
   23.9822    8.5991   22.5749 H   0  0  0  0  0  0  0  0  0  0  0  0
   21.2200   12.7039   22.8993 C   0  0  0  0  0  0  0  0  0  0  0  0
   20.4843   13.8598   22.5765 C   0  0  0  0  0  0  0  0  0  0  0  0
   20.4051   14.9353   23.4669 C   0  0  0  0  0  0  0  0  0  0  0  0
   21.0580   14.8693   24.6943 C   0  0  0  0  0  0  0  0  0  0  0  0
   20.9507   16.3246   25.8950 Br  0  0  0  0  0  0  0  0  0  0  0  0
   21.7861   13.7363   25.0429 C   0  0  0  0  0  0  0  0  0  0  0  0
   21.8644   12.6617   24.1530 C   0  0  0  0  0  0  0  0  0  0  0  0
   17.6687   10.2310   22.1965 C   0  0  0  0  0  0  0  0  0  0  0  0
   17.4828    9.7540   20.8914 C   0  0  0  0  0  0  0  0  0  0  0  0
   18.5053    9.8336   19.9479 C   0  0  0  0  0  0  0  0  0  0  0  0
   19.7350   10.3896   20.2965 C   0  0  0  0  0  0  0  0  0  0  0  0
   19.9731   10.8692   21.5998 C   0  0  0  0  0  0  0  0  0  0  0  0
   18.9179   10.7893   22.5298 C   0  0  0  0  0  0  0  0  0  0  0  0
   14.4347   10.9189   24.0575 C   0  0  0  0  0  0  0  0  0  0  0  0
   14.5273    9.9928   25.0971 C   0  0  0  0  0  0  0  0  0  0  0  0
   15.6319    9.1498   25.1981 C   0  0  0  0  0  0  0  0  0  0  0  0
   16.6546    9.2292   24.2529 C   0  0  0  0  0  0  0  0  0  0  0  0
   16.5877   10.1496   23.1943 C   0  0  0  0  0  0  0  0  0  0  0  0
   15.4624   10.9930   23.1128 C   0  0  0  0  0  0  0  0  0  0  0  0
   12.9130   12.2293   25.3324 C   0  0  0  0  0  0  0  0  0  0  0  0
   13.3021   11.6862   24.0774 O   0  0  0  0  0  0  0  0  0  0  0  0
 30 31  1  0
 31 24  1  0
 24 25  2  0
 25 26  1  0
 26 27  2  0
 27 28  1  0
 28 18  1  0
 18 19  2  0
 19 20  1  0
 20 21  2  0
 21 22  1  0
  1 22  1  0
  1 11  1  0
 11 12  2  0
 12 13  1  0
 13 14  2  0
 14 15  1  0
 14 16  1  0
 16 17  2  0
  1  2  1  0
  2  3  1  0
  3  4  2  0
  3  5  1  0
  5  6  1  0
  5  7  1  0
  7  8  2  0
 22 23  2  0
 28 29  2  0
 29 24  1  0
 23 18  1  0
  7  1  1  0
 17 11  1  0
  2  9  1  0
  4 10  1  0
M  END
> <minimizedAffinity>
-7.99261

> <CNNscore>
0.4416904747

> <CNNaffinity>
6.1733722687

> <CNN_VS>
2.7267196178

> <CNNaffinity_variance>
0.0558263399

$$$$



 31 34  0  0  0  0  0  0  0  0999 V2000
   25.9385   13.1659   19.5862 C   0  0  0  0  0  0  0  0  0  0  0  0
   26.2689   13.1854   18.1477 N   0  0  0  0  0  0  0  0  0  0  0  0
   26.5790   14.4488   17.7635 C   0  0  0  0  0  0  0  0  0  0  0  0
   26.7616   14.8396   16.5594 N   0  0  0  0  0  0  0  0  0  0  0  0
   26.6536   15.2908   18.8167 N   0  0  0  0  0  0  0  0  0  0  0  0
   26.9534   16.7007   18.7342 C   0  0  0  0  0  0  0  0  0  0  0  0
   26.2553   14.6524   19.9703 C   0  0  0  0  0  0  0  0  0  0  0  0
   26.1287   15.1668   21.0758 O   0  0  0  0  0  0  0  0  0  0  0  0
   26.2649   12.3989   17.5555 H   0  0  0  0  0  0  0  0  0  0  0  0
   26.6989   14.1951   15.8178 H   0  0  0  0  0  0  0  0  0  0  0  0
   26.8775   12.2284   20.3659 C   0  0  0  0  0  0  0  0  0  0  0  0
   26.9263   10.8409   20.1331 C   0  0  0  0  0  0  0  0  0  0  0  0
   27.7903   10.0182   20.8627 C   0  0  0  0  0  0  0  0  0  0  0  0
   28.6201   10.5714   21.8336 C   0  0  0  0  0  0  0  0  0  0  0  0
   29.7856    9.4571   22.8191 Br  0  0  0  0  0  0  0  0  0  0  0  0
   28.5985   11.9404   22.0796 C   0  0  0  0  0  0  0  0  0  0  0  0
   27.7353   12.7621   21.3498 C   0  0  0  0  0  0  0  0  0  0  0  0
   22.2407   12.9919   20.7703 C   0  0  0  0  0  0  0  0  0  0  0  0
   21.7274   12.0743   19.8431 C   0  0  0  0  0  0  0  0  0  0  0  0
   22.5432   11.5192   18.8589 C   0  0  0  0  0  0  0  0  0  0  0  0
   23.8901   11.8709   18.7885 C   0  0  0  0  0  0  0  0  0  0  0  0
   24.4538   12.7781   19.7074 C   0  0  0  0  0  0  0  0  0  0  0  0
   23.6038   13.3349   20.6832 C   0  0  0  0  0  0  0  0  0  0  0  0
   19.2263   13.7094   22.9599 C   0  0  0  0  0  0  0  0  0  0  0  0
   19.7372   14.7057   23.7926 C   0  0  0  0  0  0  0  0  0  0  0  0
   21.0508   15.1461   23.6463 C   0  0  0  0  0  0  0  0  0  0  0  0
   21.8647   14.5874   22.6609 C   0  0  0  0  0  0  0  0  0  0  0  0
   21.3789   13.5814   21.8098 C   0  0  0  0  0  0  0  0  0  0  0  0
   20.0472   13.1526   21.9749 C   0  0  0  0  0  0  0  0  0  0  0  0
   17.2785   14.0400   24.2846 C   0  0  0  0  0  0  0  0  0  0  0  0
   17.9235   13.3728   23.2074 O   0  0  0  0  0  0  0  0  0  0  0  0
 30 31  1  0
 31 24  1  0
 24 25  2  0
 25 26  1  0
 26 27  2  0
 27 28  1  0
 28 18  1  0
 18 19  2  0
 19 20  1  0
 20 21  2  0
 21 22  1  0
  1 22  1  0
  1 11  1  0
 11 12  2  0
 12 13  1  0
 13 14  2  0
 14 15  1  0
 14 16  1  0
 16 17  2  0
  1  2  1  0
  2  3  1  0
  3  4  2  0
  3  5  1  0
  5  6  1  0
  5  7  1  0
  7  8  2  0
 22 23  2  0
 28 29  2  0
 29 24  1  0
 23 18  1  0
  7  1  1  0
 17 11  1  0
  2  9  1  0
  4 10  1  0
M  END
> <minimizedAffinity>
-8.68354

> <CNNscore>
0.4088183641

> <CNNaffinity>
5.8835334778

> <CNN_VS>
2.4052965641

> <CNNaffinity_variance>
0.2114016563

$$$$



 31 34  0  0  0  0  0  0  0  0999 V2000
   28.4843   16.7835   16.3410 C   0  0  0  0  0  0  0  0  0  0  0  0
   28.1844   16.1942   15.0214 N   0  0  0  0  0  0  0  0  0  0  0  0
   27.9000   17.1777   14.1317 C   0  0  0  0  0  0  0  0  0  0  0  0
   27.4504   17.0056   12.9466 N   0  0  0  0  0  0  0  0  0  0  0  0
   28.1228   18.4047   14.6499 N   0  0  0  0  0  0  0  0  0  0  0  0
   27.9047   19.6522   13.9566 C   0  0  0  0  0  0  0  0  0  0  0  0
   28.4443   18.3099   15.9859 C   0  0  0  0  0  0  0  0  0  0  0  0
   28.6180   19.2468   16.7571 O   0  0  0  0  0  0  0  0  0  0  0  0
   28.1900   15.2311   14.8174 H   0  0  0  0  0  0  0  0  0  0  0  0
   27.3009   16.0947   12.6043 H   0  0  0  0  0  0  0  0  0  0  0  0
   29.8998   16.4091   16.8152 C   0  0  0  0  0  0  0  0  0  0  0  0
   30.1932   16.1081   18.1587 C   0  0  0  0  0  0  0  0  0  0  0  0
   31.4922   15.7744   18.5549 C   0  0  0  0  0  0  0  0  0  0  0  0
   32.5160   15.7339   17.6129 C   0  0  0  0  0  0  0  0  0  0  0  0
   34.2707   15.2840   18.1512 Br  0  0  0  0  0  0  0  0  0  0  0  0
   32.2534   16.0193   16.2769 C   0  0  0  0  0  0  0  0  0  0  0  0
   30.9551   16.3522   15.8815 C   0  0  0  0  0  0  0  0  0  0  0  0
   26.0287   14.5565   18.3700 C   0  0  0  0  0  0  0  0  0  0  0  0
   25.3836   15.5363   19.1376 C   0  0  0  0  0  0  0  0  0  0  0  0
   25.7226   16.8822   19.0116 C   0  0  0  0  0  0  0  0  0  0  0  0
   26.7121   17.2713   18.1104 C   0  0  0  0  0  0  0  0  0  0  0  0
   27.3778   16.3241   17.3074 C   0  0  0  0  0  0  0  0  0  0  0  0
   27.0257   14.9692   17.4649 C   0  0  0  0  0  0  0  0  0  0  0  0
   26.2622   10.8504   19.1482 C   0  0  0  0  0  0  0  0  0  0  0  0
   24.9933   10.4195   18.7593 C   0  0  0  0  0  0  0  0  0  0  0  0
   24.0654   11.3227   18.2453 C   0  0  0  0  0  0  0  0  0  0  0  0
   24.4045   12.6698   18.1185 C   0  0  0  0  0  0  0  0  0  0  0  0
   25.6730   13.1330   18.5039 C   0  0  0  0  0  0  0  0  0  0  0  0
   26.5957   12.2019   19.0196 C   0  0  0  0  0  0  0  0  0  0  0  0
   28.4554   10.1752   19.7742 C   0  0  0  0  0  0  0  0  0  0  0  0
   27.0758    9.8625   19.6319 O   0  0  0  0  0  0  0  0  0  0  0  0
 30 31  1  0
 31 24  1  0
 24 25  2  0
 25 26  1  0
 26 27  2  0
 27 28  1  0
 28 18  1  0
 18 19  2  0
 19 20  1  0
 20 21  2  0
 21 22  1  0
  1 22  1  0
  1 11  1  0
 11 12  2  0
 12 13  1  0
 13 14  2  0
 14 15  1  0
 14 16  1  0
 16 17  2  0
  1  2  1  0
  2  3  1  0
  3  4  2  0
  3  5  1  0
  5  6  1  0
  5  7  1  0
  7  8  2  0
 22 23  2  0
 28 29  2  0
 29 24  1  0
 23 18  1  0
  7  1  1  0
 17 11  1  0
  2  9  1  0
  4 10  1  0
M  END
> <minimizedAffinity>
-8.19579

> <CNNscore>
0.3471446633

> <CNNaffinity>
5.1601543427

> <CNN_VS>
1.7913200855

> <CNNaffinity_variance>
0.4707493782

$$$$



 31 34  0  0  0  0  0  0  0  0999 V2000
   21.9680   11.4318   22.0755 C   0  0  0  0  0  0  0  0  0  0  0  0
   22.4970   10.0743   22.3121 N   0  0  0  0  0  0  0  0  0  0  0  0
   23.7297    9.9573   21.7582 C   0  0  0  0  0  0  0  0  0  0  0  0
   24.3991    8.8730   21.6480 N   0  0  0  0  0  0  0  0  0  0  0  0
   24.1868   11.1403   21.2939 N   0  0  0  0  0  0  0  0  0  0  0  0
   25.4591   11.3418   20.6419 C   0  0  0  0  0  0  0  0  0  0  0  0
   23.2079   12.1043   21.3914 C   0  0  0  0  0  0  0  0  0  0  0  0
   23.2814   13.2554   20.9764 O   0  0  0  0  0  0  0  0  0  0  0  0
   22.0256    9.3603   22.7991 H   0  0  0  0  0  0  0  0  0  0  0  0
   24.0317    8.0299   21.9994 H   0  0  0  0  0  0  0  0  0  0  0  0
   21.6638   12.1551   23.3995 C   0  0  0  0  0  0  0  0  0  0  0  0
   22.1560   11.7042   24.6389 C   0  0  0  0  0  0  0  0  0  0  0  0
   21.8572   12.3851   25.8233 C   0  0  0  0  0  0  0  0  0  0  0  0
   21.0644   13.5284   25.7852 C   0  0  0  0  0  0  0  0  0  0  0  0
   20.6609   14.4457   27.3874 Br  0  0  0  0  0  0  0  0  0  0  0  0
   20.5707   14.0012   24.5736 C   0  0  0  0  0  0  0  0  0  0  0  0
   20.8700   13.3207   23.3903 C   0  0  0  0  0  0  0  0  0  0  0  0
   18.4559   10.4655   20.7200 C   0  0  0  0  0  0  0  0  0  0  0  0
   18.4854   11.1106   19.4757 C   0  0  0  0  0  0  0  0  0  0  0  0
   19.6033   11.8394   19.0738 C   0  0  0  0  0  0  0  0  0  0  0  0
   20.7142   11.9317   19.9105 C   0  0  0  0  0  0  0  0  0  0  0  0
   20.7361   11.2884   21.1639 C   0  0  0  0  0  0  0  0  0  0  0  0
   19.5878   10.5702   21.5514 C   0  0  0  0  0  0  0  0  0  0  0  0
   15.5804    9.1683   22.8280 C   0  0  0  0  0  0  0  0  0  0  0  0
   15.0199    8.2306   21.9599 C   0  0  0  0  0  0  0  0  0  0  0  0
   15.5701    8.0163   20.6981 C   0  0  0  0  0  0  0  0  0  0  0  0
   16.6897    8.7445   20.2960 C   0  0  0  0  0  0  0  0  0  0  0  0
   17.2739    9.6967   21.1472 C   0  0  0  0  0  0  0  0  0  0  0  0
   16.7018    9.8958   22.4189 C   0  0  0  0  0  0  0  0  0  0  0  0
   15.7606    9.2220   25.1992 C   0  0  0  0  0  0  0  0  0  0  0  0
   14.9460    9.2775   24.0353 O   0  0  0  0  0  0  0  0  0  0  0  0
 30 31  1  0
 31 24  1  0
 24 25  2  0
 25 26  1  0
 26 27  2  0
 27 28  1  0
 28 18  1  0
 18 19  2  0
 19 20  1  0
 20 21  2  0
 21 22  1  0
  1 22  1  0
  1 11  1  0
 11 12  2  0
 12 13  1  0
 13 14  2  0
 14 15  1  0
 14 16  1  0
 16 17  2  0
  1  2  1  0
  2  3  1  0
  3  4  2  0
  3  5  1  0
  5  6  1  0
  5  7  1  0
  7  8  2  0
 22 23  2  0
 28 29  2  0
 29 24  1  0
 23 18  1  0
  7  1  1  0
 17 11  1  0
  2  9  1  0
  4 10  1  0
M  END
> <minimizedAffinity>
-8.25823

> <CNNscore>
0.2885225713

> <CNNaffinity>
5.9716720581

> <CNN_VS>
1.7229621410

> <CNNaffinity_variance>
0.2364739776

$$$$
