


 27 29  0  0  0  0  0  0  0  0999 V2000
   -0.8461    4.9804   17.2821 C   0  0  0  0  0  0  0  0  0  0  0  0
   -1.8666    6.1204   17.5791 C   0  0  0  0  0  0  0  0  0  0  0  0
   -1.1674    7.3741   17.5352 O   0  0  0  0  0  0  0  0  0  0  0  0
   -3.0203    6.1655   16.5533 C   0  0  0  0  0  0  0  0  0  0  0  0
   -3.8811    5.0348   16.7144 O   0  0  0  0  0  0  0  0  0  0  0  0
   -2.5202    6.2028   15.0907 C   0  0  0  0  0  0  0  0  0  0  0  0
   -2.6112    7.5130   14.5213 O   0  0  0  0  0  0  0  0  0  0  0  0
   -1.1075    5.6845   14.9337 C   0  0  0  0  0  0  0  0  0  0  0  0
   -0.3354    5.7362   13.8393 N   0  0  0  0  0  0  0  0  0  0  0  0
    0.9202    5.2034   14.0777 C   0  0  0  0  0  0  0  0  0  0  0  0
    0.8933    4.8064   15.3951 C   0  0  0  0  0  0  0  0  0  0  0  0
   -0.3637    5.1020   15.8891 N   0  0  0  0  0  0  0  0  0  0  0  0
   -0.7943    7.5054   16.6495 H   0  0  0  0  0  0  0  0  0  0  0  0
   -3.3833    4.2215   16.5366 H   0  0  0  0  0  0  0  0  0  0  0  0
   -2.0195    8.1150   14.9992 H   0  0  0  0  0  0  0  0  0  0  0  0
   -0.6248    6.1066   12.9743 H   0  0  0  0  0  0  0  0  0  0  0  0
   -0.3881    2.7218   18.0981 O   0  0  0  0  0  0  0  0  0  0  0  0
   -1.3928    3.5666   17.5531 C   0  0  0  0  0  0  0  0  0  0  0  0
   -0.7591    1.8400   18.2585 H   0  0  0  0  0  0  0  0  0  0  0  0
    1.9902    5.1590   13.0569 C   0  0  0  0  0  0  0  0  0  0  0  0
    1.4793    4.5799   11.7385 C   0  0  0  0  0  0  0  0  0  0  0  0
    1.9674    3.1697   11.5348 C   0  0  0  0  0  0  0  0  0  0  0  0
    2.2710    2.3567   12.6355 C   0  0  0  0  0  0  0  0  0  0  0  0
    2.7460    1.0583   12.4449 C   0  0  0  0  0  0  0  0  0  0  0  0
    2.9248    0.5622   11.1553 C   0  0  0  0  0  0  0  0  0  0  0  0
    2.6289    1.3631   10.0544 C   0  0  0  0  0  0  0  0  0  0  0  0
    2.1538    2.6620   10.2416 C   0  0  0  0  0  0  0  0  0  0  0  0
 17 18  1  0
  1 18  1  0
  1  2  1  0
  2  3  1  0
  2  4  1  0
  4  5  1  0
  4  6  1  0
  6  7  1  0
  6  8  1  0
  8  9  1  0
  9 10  1  0
 10 20  1  0
 20 21  1  0
 21 22  1  0
 22 23  2  0
 23 24  1  0
 24 25  2  0
 25 26  1  0
 26 27  2  0
 10 11  2  0
 11 12  1  0
 12  1  1  0
 12  8  2  0
 27 22  1  0
 17 19  1  0
  3 13  1  0
  5 14  1  0
  7 15  1  0
  9 16  1  0
M  CHG 1  12   1
M  END
> <minimizedAffinity>
-7.80977

> <CNNscore>
0.3049636483

> <CNNaffinity>
4.5896811485

> <CNN_VS>
1.3996858597

> <CNNaffinity_variance>
0.3803716600

$$$$



 27 29  0  0  0  0  0  0  0  0999 V2000
   -2.6255    6.0608   14.3214 C   0  0  0  0  0  0  0  0  0  0  0  0
   -3.1804    5.9948   15.7763 C   0  0  0  0  0  0  0  0  0  0  0  0
   -3.0804    4.6378   16.2358 O   0  0  0  0  0  0  0  0  0  0  0  0
   -2.3979    6.9020   16.7510 C   0  0  0  0  0  0  0  0  0  0  0  0
   -2.6508    8.2808   16.4679 O   0  0  0  0  0  0  0  0  0  0  0  0
   -0.8718    6.6582   16.7018 C   0  0  0  0  0  0  0  0  0  0  0  0
   -0.4110    5.8876   17.8167 O   0  0  0  0  0  0  0  0  0  0  0  0
   -0.4173    6.0024   15.4164 C   0  0  0  0  0  0  0  0  0  0  0  0
    0.7990    5.5152   15.1337 N   0  0  0  0  0  0  0  0  0  0  0  0
    0.8371    4.9442   13.8729 C   0  0  0  0  0  0  0  0  0  0  0  0
   -0.4346    5.1041   13.3719 C   0  0  0  0  0  0  0  0  0  0  0  0
   -1.1761    5.7656   14.3333 N   0  0  0  0  0  0  0  0  0  0  0  0
   -2.1495    4.3651   16.2388 H   0  0  0  0  0  0  0  0  0  0  0  0
   -2.3322    8.4915   15.5763 H   0  0  0  0  0  0  0  0  0  0  0  0
   -0.8032    5.0012   17.7812 H   0  0  0  0  0  0  0  0  0  0  0  0
    1.5689    5.5581   15.7458 H   0  0  0  0  0  0  0  0  0  0  0  0
   -1.7655    8.2378   13.6152 O   0  0  0  0  0  0  0  0  0  0  0  0
   -2.9092    7.3939   13.6047 C   0  0  0  0  0  0  0  0  0  0  0  0
   -1.9721    9.0681   13.1583 H   0  0  0  0  0  0  0  0  0  0  0  0
    2.0439    4.2992   13.3101 C   0  0  0  0  0  0  0  0  0  0  0  0
    2.0755    2.8044   13.6252 C   0  0  0  0  0  0  0  0  0  0  0  0
    2.1748    1.9821   12.3674 C   0  0  0  0  0  0  0  0  0  0  0  0
    1.3647    2.2741   11.2615 C   0  0  0  0  0  0  0  0  0  0  0  0
    1.4408    1.4964   10.1051 C   0  0  0  0  0  0  0  0  0  0  0  0
    2.3230    0.4197   10.0443 C   0  0  0  0  0  0  0  0  0  0  0  0
    3.1306    0.1192   11.1390 C   0  0  0  0  0  0  0  0  0  0  0  0
    3.0568    0.8949   12.2969 C   0  0  0  0  0  0  0  0  0  0  0  0
 17 18  1  0
  1 18  1  0
  1  2  1  0
  2  3  1  0
  2  4  1  0
  4  5  1  0
  4  6  1  0
  6  7  1  0
  6  8  1  0
  8  9  1  0
  9 10  1  0
 10 20  1  0
 20 21  1  0
 21 22  1  0
 22 23  2  0
 23 24  1  0
 24 25  2  0
 25 26  1  0
 26 27  2  0
 10 11  2  0
 11 12  1  0
 12  1  1  0
 12  8  2  0
 27 22  1  0
 17 19  1  0
  3 13  1  0
  5 14  1  0
  7 15  1  0
  9 16  1  0
M  CHG 1  12   1
M  END
> <minimizedAffinity>
-7.27548

> <CNNscore>
0.3016145825

> <CNNaffinity>
4.5421409607

> <CNN_VS>
1.3699759245

> <CNNaffinity_variance>
0.4261448383

$$$$



 27 29  0  0  0  0  0  0  0  0999 V2000
   -2.6613    6.5494   13.9507 C   0  0  0  0  0  0  0  0  0  0  0  0
   -3.6496    6.9576   15.0845 C   0  0  0  0  0  0  0  0  0  0  0  0
   -4.6559    5.9387   15.1939 O   0  0  0  0  0  0  0  0  0  0  0  0
   -2.9517    7.1071   16.4541 C   0  0  0  0  0  0  0  0  0  0  0  0
   -2.1008    8.2565   16.4621 O   0  0  0  0  0  0  0  0  0  0  0  0
   -2.1119    5.8666   16.8370 C   0  0  0  0  0  0  0  0  0  0  0  0
   -2.7702    5.0467   17.8083 O   0  0  0  0  0  0  0  0  0  0  0  0
   -1.7269    5.0199   15.6438 C   0  0  0  0  0  0  0  0  0  0  0  0
   -1.1498    3.8102   15.6528 N   0  0  0  0  0  0  0  0  0  0  0  0
   -0.9865    3.3155   14.3698 C   0  0  0  0  0  0  0  0  0  0  0  0
   -1.4949    4.2928   13.5450 C   0  0  0  0  0  0  0  0  0  0  0  0
   -1.9289    5.3284   14.3518 N   0  0  0  0  0  0  0  0  0  0  0  0
   -4.2378    5.0949   15.4263 H   0  0  0  0  0  0  0  0  0  0  0  0
   -1.3979    8.1431   15.8034 H   0  0  0  0  0  0  0  0  0  0  0  0
   -3.5849    4.6842   17.4266 H   0  0  0  0  0  0  0  0  0  0  0  0
   -0.8762    3.3331   16.4693 H   0  0  0  0  0  0  0  0  0  0  0  0
   -0.4055    7.4747   14.1317 O   0  0  0  0  0  0  0  0  0  0  0  0
   -1.6842    7.6670   13.5416 C   0  0  0  0  0  0  0  0  0  0  0  0
    0.1881    8.1912   13.8577 H   0  0  0  0  0  0  0  0  0  0  0  0
   -0.4049    1.9863   14.0803 C   0  0  0  0  0  0  0  0  0  0  0  0
    1.1219    2.0393   14.0553 C   0  0  0  0  0  0  0  0  0  0  0  0
    1.6193    2.9778   12.9875 C   0  0  0  0  0  0  0  0  0  0  0  0
    1.9284    4.3090   13.2991 C   0  0  0  0  0  0  0  0  0  0  0  0
    2.3665    5.1839   12.3038 C   0  0  0  0  0  0  0  0  0  0  0  0
    2.4963    4.7387   10.9900 C   0  0  0  0  0  0  0  0  0  0  0  0
    2.1888    3.4182   10.6692 C   0  0  0  0  0  0  0  0  0  0  0  0
    1.7505    2.5408   11.6621 C   0  0  0  0  0  0  0  0  0  0  0  0
 17 18  1  0
  1 18  1  0
  1  2  1  0
  2  3  1  0
  2  4  1  0
  4  5  1  0
  4  6  1  0
  6  7  1  0
  6  8  1  0
  8  9  1  0
  9 10  1  0
 10 20  1  0
 20 21  1  0
 21 22  1  0
 22 23  2  0
 23 24  1  0
 24 25  2  0
 25 26  1  0
 26 27  2  0
 10 11  2  0
 11 12  1  0
 12  1  1  0
 12  8  2  0
 27 22  1  0
 17 19  1  0
  3 13  1  0
  5 14  1  0
  7 15  1  0
  9 16  1  0
M  CHG 1  12   1
M  END
> <minimizedAffinity>
-7.17724

> <CNNscore>
0.2883231044

> <CNNaffinity>
4.5076861382

> <CNN_VS>
1.2996701002

> <CNNaffinity_variance>
0.6141474247

$$$$



 27 29  0  0  0  0  0  0  0  0999 V2000
   -0.4817    3.9425   16.6658 C   0  0  0  0  0  0  0  0  0  0  0  0
   -0.7848    4.7779   17.9461 C   0  0  0  0  0  0  0  0  0  0  0  0
    0.3698    5.5774   18.2466 O   0  0  0  0  0  0  0  0  0  0  0  0
   -1.9987    5.7160   17.7683 C   0  0  0  0  0  0  0  0  0  0  0  0
   -3.2108    4.9610   17.6908 O   0  0  0  0  0  0  0  0  0  0  0  0
   -1.8884    6.6062   16.5089 C   0  0  0  0  0  0  0  0  0  0  0  0
   -1.5128    7.9502   16.8278 O   0  0  0  0  0  0  0  0  0  0  0  0
   -0.9360    6.0516   15.4724 C   0  0  0  0  0  0  0  0  0  0  0  0
   -0.4990    6.6557   14.3585 N   0  0  0  0  0  0  0  0  0  0  0  0
    0.4027    5.8616   13.6703 C   0  0  0  0  0  0  0  0  0  0  0  0
    0.5068    4.7115   14.4189 C   0  0  0  0  0  0  0  0  0  0  0  0
   -0.3328    4.8516   15.5084 N   0  0  0  0  0  0  0  0  0  0  0  0
    0.5460    6.1813   17.5083 H   0  0  0  0  0  0  0  0  0  0  0  0
   -3.1856    4.3885   16.9082 H   0  0  0  0  0  0  0  0  0  0  0  0
   -0.6218    7.9546   17.2113 H   0  0  0  0  0  0  0  0  0  0  0  0
   -0.7835    7.5517   14.0663 H   0  0  0  0  0  0  0  0  0  0  0  0
   -2.5233    3.3127   15.4772 O   0  0  0  0  0  0  0  0  0  0  0  0
   -1.5236    2.8468   16.3737 C   0  0  0  0  0  0  0  0  0  0  0  0
   -3.1645    2.6040   15.3114 H   0  0  0  0  0  0  0  0  0  0  0  0
    1.0711    6.2880   12.4211 C   0  0  0  0  0  0  0  0  0  0  0  0
    2.1659    5.3043   12.0108 C   0  0  0  0  0  0  0  0  0  0  0  0
    1.8046    4.5828   10.7391 C   0  0  0  0  0  0  0  0  0  0  0  0
    0.9361    5.1720    9.8099 C   0  0  0  0  0  0  0  0  0  0  0  0
    0.5833    4.4922    8.6431 C   0  0  0  0  0  0  0  0  0  0  0  0
    1.0914    3.2187    8.3960 C   0  0  0  0  0  0  0  0  0  0  0  0
    1.9530    2.6229    9.3145 C   0  0  0  0  0  0  0  0  0  0  0  0
    2.3076    3.3000   10.4822 C   0  0  0  0  0  0  0  0  0  0  0  0
 17 18  1  0
  1 18  1  0
  1  2  1  0
  2  3  1  0
  2  4  1  0
  4  5  1  0
  4  6  1  0
  6  7  1  0
  6  8  1  0
  8  9  1  0
  9 10  1  0
 10 20  1  0
 20 21  1  0
 21 22  1  0
 22 23  2  0
 23 24  1  0
 24 25  2  0
 25 26  1  0
 26 27  2  0
 10 11  2  0
 11 12  1  0
 12  1  1  0
 12  8  2  0
 27 22  1  0
 17 19  1  0
  3 13  1  0
  5 14  1  0
  7 15  1  0
  9 16  1  0
M  CHG 1  12   1
M  END
> <minimizedAffinity>
-7.72327

> <CNNscore>
0.2744351923

> <CNNaffinity>
4.0626101494

> <CNN_VS>
1.1149232388

> <CNNaffinity_variance>
0.8130598068

$$$$



 27 29  0  0  0  0  0  0  0  0999 V2000
   -3.1532    5.9190   15.3050 C   0  0  0  0  0  0  0  0  0  0  0  0
   -3.2999    6.3176   16.8046 C   0  0  0  0  0  0  0  0  0  0  0  0
   -4.3768    5.5543   17.3707 O   0  0  0  0  0  0  0  0  0  0  0  0
   -2.0186    6.0384   17.6204 C   0  0  0  0  0  0  0  0  0  0  0  0
   -0.9746    6.9394   17.2412 O   0  0  0  0  0  0  0  0  0  0  0  0
   -1.5065    4.5890   17.4541 C   0  0  0  0  0  0  0  0  0  0  0  0
   -1.8213    3.7710   18.5858 O   0  0  0  0  0  0  0  0  0  0  0  0
   -2.0150    3.9213   16.1953 C   0  0  0  0  0  0  0  0  0  0  0  0
   -1.8911    2.6329   15.8470 N   0  0  0  0  0  0  0  0  0  0  0  0
   -2.5222    2.3691   14.6431 C   0  0  0  0  0  0  0  0  0  0  0  0
   -3.0521    3.5761   14.2479 C   0  0  0  0  0  0  0  0  0  0  0  0
   -2.7151    4.5093   15.2108 N   0  0  0  0  0  0  0  0  0  0  0  0
   -4.1682    4.6088   17.3128 H   0  0  0  0  0  0  0  0  0  0  0  0
   -0.7469    6.7965   16.3092 H   0  0  0  0  0  0  0  0  0  0  0  0
   -2.7842    3.6844   18.6643 H   0  0  0  0  0  0  0  0  0  0  0  0
   -1.4115    1.9586   16.3803 H   0  0  0  0  0  0  0  0  0  0  0  0
   -2.3510    8.1949   14.9124 O   0  0  0  0  0  0  0  0  0  0  0  0
   -2.2162    6.8406   14.5027 C   0  0  0  0  0  0  0  0  0  0  0  0
   -1.7509    8.7515   14.3919 H   0  0  0  0  0  0  0  0  0  0  0  0
   -2.5741    1.0228   14.0318 C   0  0  0  0  0  0  0  0  0  0  0  0
   -1.7729    0.9696   12.7318 C   0  0  0  0  0  0  0  0  0  0  0  0
   -0.3070    1.2076   12.9825 C   0  0  0  0  0  0  0  0  0  0  0  0
    0.4066    0.3828   13.8629 C   0  0  0  0  0  0  0  0  0  0  0  0
    1.7593    0.6193   14.1126 C   0  0  0  0  0  0  0  0  0  0  0  0
    2.4094    1.6820   13.4886 C   0  0  0  0  0  0  0  0  0  0  0  0
    1.7085    2.5095   12.6140 C   0  0  0  0  0  0  0  0  0  0  0  0
    0.3558    2.2757   12.3623 C   0  0  0  0  0  0  0  0  0  0  0  0
 17 18  1  0
  1 18  1  0
  1  2  1  0
  2  3  1  0
  2  4  1  0
  4  5  1  0
  4  6  1  0
  6  7  1  0
  6  8  1  0
  8  9  1  0
  9 10  1  0
 10 20  1  0
 20 21  1  0
 21 22  1  0
 22 23  2  0
 23 24  1  0
 24 25  2  0
 25 26  1  0
 26 27  2  0
 10 11  2  0
 11 12  1  0
 12  1  1  0
 12  8  2  0
 27 22  1  0
 17 19  1  0
  3 13  1  0
  5 14  1  0
  7 15  1  0
  9 16  1  0
M  CHG 1  12   1
M  END
> <minimizedAffinity>
-7.09733

> <CNNscore>
0.2664085627

> <CNNaffinity>
3.9173583984

> <CNN_VS>
1.0436178446

> <CNNaffinity_variance>
1.4908376932

$$$$



 27 29  0  0  0  0  0  0  0  0999 V2000
   -3.2067    5.8896   15.3119 C   0  0  0  0  0  0  0  0  0  0  0  0
   -3.2903    6.2952   16.8144 C   0  0  0  0  0  0  0  0  0  0  0  0
   -4.3531    5.5466   17.4250 O   0  0  0  0  0  0  0  0  0  0  0  0
   -1.9816    6.0040   17.5809 C   0  0  0  0  0  0  0  0  0  0  0  0
   -0.9429    6.8914   17.1579 O   0  0  0  0  0  0  0  0  0  0  0  0
   -1.4931    4.5482   17.4006 C   0  0  0  0  0  0  0  0  0  0  0  0
   -1.7730    3.7379   18.5469 O   0  0  0  0  0  0  0  0  0  0  0  0
   -2.0579    3.8819   16.1653 C   0  0  0  0  0  0  0  0  0  0  0  0
   -1.9625    2.5910   15.8175 N   0  0  0  0  0  0  0  0  0  0  0  0
   -2.6429    2.3303   14.6401 C   0  0  0  0  0  0  0  0  0  0  0  0
   -3.1738    3.5420   14.2609 C   0  0  0  0  0  0  0  0  0  0  0  0
   -2.7889    4.4746   15.2064 N   0  0  0  0  0  0  0  0  0  0  0  0
   -4.1579    4.5984   17.3628 H   0  0  0  0  0  0  0  0  0  0  0  0
   -0.7532    6.7426   16.2183 H   0  0  0  0  0  0  0  0  0  0  0  0
   -2.7331    3.6628   18.6632 H   0  0  0  0  0  0  0  0  0  0  0  0
   -1.4702    1.9130   16.3345 H   0  0  0  0  0  0  0  0  0  0  0  0
   -2.3724    8.1502   14.8983 O   0  0  0  0  0  0  0  0  0  0  0  0
   -2.2911    6.7974   14.4700 C   0  0  0  0  0  0  0  0  0  0  0  0
   -1.7872    8.6980   14.3521 H   0  0  0  0  0  0  0  0  0  0  0  0
   -2.7340    0.9825   14.0366 C   0  0  0  0  0  0  0  0  0  0  0  0
   -1.4626    0.6296   13.2661 C   0  0  0  0  0  0  0  0  0  0  0  0
   -1.6285    0.8837   11.7909 C   0  0  0  0  0  0  0  0  0  0  0  0
   -2.2959   -0.0449   10.9804 C   0  0  0  0  0  0  0  0  0  0  0  0
   -2.4280    0.1805    9.6094 C   0  0  0  0  0  0  0  0  0  0  0  0
   -1.8927    1.3320    9.0361 C   0  0  0  0  0  0  0  0  0  0  0  0
   -1.2249    2.2600    9.8324 C   0  0  0  0  0  0  0  0  0  0  0  0
   -1.0911    2.0374   11.2037 C   0  0  0  0  0  0  0  0  0  0  0  0
 17 18  1  0
  1 18  1  0
  1  2  1  0
  2  3  1  0
  2  4  1  0
  4  5  1  0
  4  6  1  0
  6  7  1  0
  6  8  1  0
  8  9  1  0
  9 10  1  0
 10 20  1  0
 20 21  1  0
 21 22  1  0
 22 23  2  0
 23 24  1  0
 24 25  2  0
 25 26  1  0
 26 27  2  0
 10 11  2  0
 11 12  1  0
 12  1  1  0
 12  8  2  0
 27 22  1  0
 17 19  1  0
  3 13  1  0
  5 14  1  0
  7 15  1  0
  9 16  1  0
M  CHG 1  12   1
M  END
> <minimizedAffinity>
-6.85362

> <CNNscore>
0.2571584582

> <CNNaffinity>
3.5880477428

> <CNN_VS>
0.9226968288

> <CNNaffinity_variance>
1.3956476450

$$$$



 27 29  0  0  0  0  0  0  0  0999 V2000
   -1.7863    6.2795   14.1343 C   0  0  0  0  0  0  0  0  0  0  0  0
   -3.1130    6.4766   14.9280 C   0  0  0  0  0  0  0  0  0  0  0  0
   -3.8692    5.2580   14.8519 O   0  0  0  0  0  0  0  0  0  0  0  0
   -2.8697    6.8112   16.4160 C   0  0  0  0  0  0  0  0  0  0  0  0
   -2.3195    8.1242   16.5528 O   0  0  0  0  0  0  0  0  0  0  0  0
   -1.9244    5.8034   17.1097 C   0  0  0  0  0  0  0  0  0  0  0  0
   -2.6353    4.8766   17.9372 O   0  0  0  0  0  0  0  0  0  0  0  0
   -1.0532    5.0407   16.1360 C   0  0  0  0  0  0  0  0  0  0  0  0
   -0.2571    3.9947   16.3984 N   0  0  0  0  0  0  0  0  0  0  0  0
    0.3561    3.5223   15.2504 C   0  0  0  0  0  0  0  0  0  0  0  0
   -0.1003    4.3397   14.2418 C   0  0  0  0  0  0  0  0  0  0  0  0
   -0.9509    5.2666   14.8155 N   0  0  0  0  0  0  0  0  0  0  0  0
   -3.3619    4.5369   15.2563 H   0  0  0  0  0  0  0  0  0  0  0  0
   -1.4545    8.1595   16.1154 H   0  0  0  0  0  0  0  0  0  0  0  0
   -3.2159    4.3297   17.3852 H   0  0  0  0  0  0  0  0  0  0  0  0
   -0.1250    3.6105   17.2952 H   0  0  0  0  0  0  0  0  0  0  0  0
   -0.2634    7.5325   12.6892 O   0  0  0  0  0  0  0  0  0  0  0  0
   -0.9956    7.5811   13.9064 C   0  0  0  0  0  0  0  0  0  0  0  0
    0.2238    8.3630   12.5715 H   0  0  0  0  0  0  0  0  0  0  0  0
    1.2644    2.3545   15.2373 C   0  0  0  0  0  0  0  0  0  0  0  0
    0.4891    1.0437   15.3604 C   0  0  0  0  0  0  0  0  0  0  0  0
    1.1790    0.0857   16.2958 C   0  0  0  0  0  0  0  0  0  0  0  0
    1.4789   -1.2195   15.8822 C   0  0  0  0  0  0  0  0  0  0  0  0
    2.0967   -2.1135   16.7580 C   0  0  0  0  0  0  0  0  0  0  0  0
    2.4168   -1.7135   18.0536 C   0  0  0  0  0  0  0  0  0  0  0  0
    2.1203   -0.4193   18.4756 C   0  0  0  0  0  0  0  0  0  0  0  0
    1.5026    0.4771   17.6022 C   0  0  0  0  0  0  0  0  0  0  0  0
 17 18  1  0
  1 18  1  0
  1  2  1  0
  2  3  1  0
  2  4  1  0
  4  5  1  0
  4  6  1  0
  6  7  1  0
  6  8  1  0
  8  9  1  0
  9 10  1  0
 10 20  1  0
 20 21  1  0
 21 22  1  0
 22 23  2  0
 23 24  1  0
 24 25  2  0
 25 26  1  0
 26 27  2  0
 10 11  2  0
 11 12  1  0
 12  1  1  0
 12  8  2  0
 27 22  1  0
 17 19  1  0
  3 13  1  0
  5 14  1  0
  7 15  1  0
  9 16  1  0
M  CHG 1  12   1
M  END
> <minimizedAffinity>
-6.91181

> <CNNscore>
0.2540468872

> <CNNaffinity>
4.6788210869

> <CNN_VS>
1.1886398792

> <CNNaffinity_variance>
0.0769537389

$$$$



 27 29  0  0  0  0  0  0  0  0999 V2000
   -2.0253    6.0902   15.1454 C   0  0  0  0  0  0  0  0  0  0  0  0
   -2.8156    6.1561   16.4871 C   0  0  0  0  0  0  0  0  0  0  0  0
   -3.8284    5.1381   16.4642 O   0  0  0  0  0  0  0  0  0  0  0  0
   -1.9134    5.9233   17.7187 C   0  0  0  0  0  0  0  0  0  0  0  0
   -1.0318    7.0325   17.9133 O   0  0  0  0  0  0  0  0  0  0  0  0
   -1.0688    4.6330   17.6072 C   0  0  0  0  0  0  0  0  0  0  0  0
   -1.6002    3.5683   18.4027 O   0  0  0  0  0  0  0  0  0  0  0  0
   -0.8986    4.1572   16.1812 C   0  0  0  0  0  0  0  0  0  0  0  0
   -0.3691    2.9985   15.7644 N   0  0  0  0  0  0  0  0  0  0  0  0
   -0.4194    2.8837   14.3855 C   0  0  0  0  0  0  0  0  0  0  0  0
   -1.0127    4.0479   13.9535 C   0  0  0  0  0  0  0  0  0  0  0  0
   -1.2834    4.8126   15.0732 N   0  0  0  0  0  0  0  0  0  0  0  0
   -3.4094    4.2668   16.3854 H   0  0  0  0  0  0  0  0  0  0  0  0
   -0.4413    7.1142   17.1481 H   0  0  0  0  0  0  0  0  0  0  0  0
   -2.4755    3.3194   18.0667 H   0  0  0  0  0  0  0  0  0  0  0  0
    0.0084    2.3147   16.3637 H   0  0  0  0  0  0  0  0  0  0  0  0
   -1.6503    8.2217   14.0080 O   0  0  0  0  0  0  0  0  0  0  0  0
   -1.0834    7.2866   14.9160 C   0  0  0  0  0  0  0  0  0  0  0  0
   -1.0373    8.9628   13.8824 H   0  0  0  0  0  0  0  0  0  0  0  0
    0.0652    1.6938   13.6518 C   0  0  0  0  0  0  0  0  0  0  0  0
    1.5413    1.4242   13.9399 C   0  0  0  0  0  0  0  0  0  0  0  0
    1.7223    0.1491   14.7207 C   0  0  0  0  0  0  0  0  0  0  0  0
    1.6768    0.1610   16.1216 C   0  0  0  0  0  0  0  0  0  0  0  0
    1.8685   -1.0174   16.8446 C   0  0  0  0  0  0  0  0  0  0  0  0
    2.1104   -2.2155   16.1760 C   0  0  0  0  0  0  0  0  0  0  0  0
    2.1606   -2.2377   14.7839 C   0  0  0  0  0  0  0  0  0  0  0  0
    1.9693   -1.0611   14.0580 C   0  0  0  0  0  0  0  0  0  0  0  0
 17 18  1  0
  1 18  1  0
  1  2  1  0
  2  3  1  0
  2  4  1  0
  4  5  1  0
  4  6  1  0
  6  7  1  0
  6  8  1  0
  8  9  1  0
  9 10  1  0
 10 20  1  0
 20 21  1  0
 21 22  1  0
 22 23  2  0
 23 24  1  0
 24 25  2  0
 25 26  1  0
 26 27  2  0
 10 11  2  0
 11 12  1  0
 12  1  1  0
 12  8  2  0
 27 22  1  0
 17 19  1  0
  3 13  1  0
  5 14  1  0
  7 15  1  0
  9 16  1  0
M  CHG 1  12   1
M  END
> <minimizedAffinity>
-6.89219

> <CNNscore>
0.2443667352

> <CNNaffinity>
4.4789080620

> <CNN_VS>
1.0944961309

> <CNNaffinity_variance>
0.0834066048

$$$$



 27 29  0  0  0  0  0  0  0  0999 V2000
   -1.5979    6.8908   13.8652 C   0  0  0  0  0  0  0  0  0  0  0  0
   -3.0231    7.1175   14.4540 C   0  0  0  0  0  0  0  0  0  0  0  0
   -3.8439    5.9958   14.0923 O   0  0  0  0  0  0  0  0  0  0  0  0
   -3.0154    7.2440   15.9932 C   0  0  0  0  0  0  0  0  0  0  0  0
   -2.4003    8.4713   16.3939 O   0  0  0  0  0  0  0  0  0  0  0  0
   -2.2820    6.0729   16.6869 C   0  0  0  0  0  0  0  0  0  0  0  0
   -3.1922    5.1256   17.2554 O   0  0  0  0  0  0  0  0  0  0  0  0
   -1.3156    5.3533   15.7718 C   0  0  0  0  0  0  0  0  0  0  0  0
   -0.6573    4.2113   16.0147 N   0  0  0  0  0  0  0  0  0  0  0  0
    0.1075    3.8245   14.9271 C   0  0  0  0  0  0  0  0  0  0  0  0
   -0.1058    4.7986   13.9786 C   0  0  0  0  0  0  0  0  0  0  0  0
   -0.9706    5.7268   14.5282 N   0  0  0  0  0  0  0  0  0  0  0  0
   -3.4693    5.1854   14.4715 H   0  0  0  0  0  0  0  0  0  0  0  0
   -1.4726    8.4757   16.1105 H   0  0  0  0  0  0  0  0  0  0  0  0
   -3.7083    4.7084   16.5479 H   0  0  0  0  0  0  0  0  0  0  0  0
   -0.7108    3.7102   16.8604 H   0  0  0  0  0  0  0  0  0  0  0  0
    0.2233    8.1705   12.8538 O   0  0  0  0  0  0  0  0  0  0  0  0
   -0.6846    8.1279   13.9466 C   0  0  0  0  0  0  0  0  0  0  0  0
    0.7847    8.9579   12.9304 H   0  0  0  0  0  0  0  0  0  0  0  0
    0.9144    2.5847   14.9020 C   0  0  0  0  0  0  0  0  0  0  0  0
    2.0774    2.6963   13.9174 C   0  0  0  0  0  0  0  0  0  0  0  0
    2.3573    1.3758   13.2493 C   0  0  0  0  0  0  0  0  0  0  0  0
    3.0204    1.3301   12.0153 C   0  0  0  0  0  0  0  0  0  0  0  0
    3.2578    0.1072   11.3859 C   0  0  0  0  0  0  0  0  0  0  0  0
    2.8327   -1.0788   11.9809 C   0  0  0  0  0  0  0  0  0  0  0  0
    2.1701   -1.0441   13.2059 C   0  0  0  0  0  0  0  0  0  0  0  0
    1.9311    0.1772   13.8378 C   0  0  0  0  0  0  0  0  0  0  0  0
 17 18  1  0
  1 18  1  0
  1  2  1  0
  2  3  1  0
  2  4  1  0
  4  5  1  0
  4  6  1  0
  6  7  1  0
  6  8  1  0
  8  9  1  0
  9 10  1  0
 10 20  1  0
 20 21  1  0
 21 22  1  0
 22 23  2  0
 23 24  1  0
 24 25  2  0
 25 26  1  0
 26 27  2  0
 10 11  2  0
 11 12  1  0
 12  1  1  0
 12  8  2  0
 27 22  1  0
 17 19  1  0
  3 13  1  0
  5 14  1  0
  7 15  1  0
  9 16  1  0
M  CHG 1  12   1
M  END
> <minimizedAffinity>
-7.83017

> <CNNscore>
0.2329195291

> <CNNaffinity>
4.4262375832

> <CNN_VS>
1.0309572220

> <CNNaffinity_variance>
0.4874595702

$$$$
