


 17 18  0  0  0  0  0  0  0  0999 V2000
   -1.7236    4.4905   15.9797 C   0  0  0  0  0  0  0  0  0  0  0  0
   -2.3033    3.0711   15.7600 C   0  0  0  0  0  0  0  0  0  0  0  0
   -1.2977    1.9376   16.1227 C   0  0  0  0  0  0  0  0  0  0  0  0
   -0.4509    2.2976   17.3938 C   0  0  0  0  0  0  0  0  0  0  0  0
   -1.3113    2.6142   18.6285 C   0  0  0  0  0  0  0  0  0  0  0  0
   -1.6178    4.1057   18.5192 C   0  0  0  0  0  0  0  0  0  0  0  0
   -0.8695    4.5594   17.2658 C   0  0  0  0  0  0  0  0  0  0  0  0
    0.2185    3.5871   17.1476 N   0  0  0  0  0  0  0  0  0  0  0  0
    0.9422    3.7621   17.8448 H   0  0  0  0  0  0  0  0  0  0  0  0
   -2.5277    6.6774   15.4737 C   0  0  0  0  0  0  0  0  0  0  0  0
   -2.8141    5.4255   16.0842 O   0  0  0  0  0  0  0  0  0  0  0  0
   -2.6701    2.9061   14.3671 O   0  0  0  0  0  0  0  0  0  0  0  0
   -1.5756    3.0583   13.4720 C   0  0  0  0  0  0  0  0  0  0  0  0
   -2.0650    0.7290   16.3746 O   0  0  0  0  0  0  0  0  0  0  0  0
   -1.7770   -0.3094   15.4456 C   0  0  0  0  0  0  0  0  0  0  0  0
    0.5860    1.3745   17.7036 O   0  0  0  0  0  0  0  0  0  0  0  0
    1.4641    1.0351   16.6439 C   0  0  0  0  0  0  0  0  0  0  0  0
 10 11  1  0
  1 11  1  0
  1  2  1  0
  2 12  1  0
 12 13  1  0
  2  3  1  0
  3 14  1  0
 14 15  1  0
  3  4  1  0
  4 16  1  0
 16 17  1  0
  4  5  1  0
  5  6  1  0
  7  6  1  0
  7  8  1  0
  7  1  1  0
  8  4  1  0
  8  9  1  0
M  END
> <minimizedAffinity>
-5.16855

> <CNNscore>
0.4180400074

> <CNNaffinity>
3.7059991360

> <CNN_VS>
1.5492558479

> <CNNaffinity_variance>
0.3801935613

$$$$



 17 18  0  0  0  0  0  0  0  0999 V2000
   -0.0474    9.5492    9.4615 C   0  0  0  0  0  0  0  0  0  0  0  0
   -0.1182    8.0020    9.4469 C   0  0  0  0  0  0  0  0  0  0  0  0
   -0.5632    7.3979   10.8124 C   0  0  0  0  0  0  0  0  0  0  0  0
   -1.6720    8.2701   11.4994 C   0  0  0  0  0  0  0  0  0  0  0  0
   -2.9149    8.4787   10.6182 C   0  0  0  0  0  0  0  0  0  0  0  0
   -2.5939    9.7099    9.7747 C   0  0  0  0  0  0  0  0  0  0  0  0
   -1.2177   10.1609   10.2643 C   0  0  0  0  0  0  0  0  0  0  0  0
   -1.1563    9.6441   11.6325 N   0  0  0  0  0  0  0  0  0  0  0  0
   -1.7434   10.1958   12.2581 H   0  0  0  0  0  0  0  0  0  0  0  0
   -0.3723   11.4220    8.0220 C   0  0  0  0  0  0  0  0  0  0  0  0
   -0.1017   10.0285    8.1044 O   0  0  0  0  0  0  0  0  0  0  0  0
    1.1877    7.4586    9.1289 O   0  0  0  0  0  0  0  0  0  0  0  0
    1.1419    6.3830    8.1997 C   0  0  0  0  0  0  0  0  0  0  0  0
   -1.0806    6.0634   10.5585 O   0  0  0  0  0  0  0  0  0  0  0  0
   -0.4563    5.0689   11.3620 C   0  0  0  0  0  0  0  0  0  0  0  0
   -2.0277    7.8596   12.8140 O   0  0  0  0  0  0  0  0  0  0  0  0
   -1.1611    8.2701   13.8579 C   0  0  0  0  0  0  0  0  0  0  0  0
 10 11  1  0
  1 11  1  0
  1  2  1  0
  2 12  1  0
 12 13  1  0
  2  3  1  0
  3 14  1  0
 14 15  1  0
  3  4  1  0
  4 16  1  0
 16 17  1  0
  4  5  1  0
  5  6  1  0
  7  6  1  0
  7  8  1  0
  7  1  1  0
  8  4  1  0
  8  9  1  0
M  END
> <minimizedAffinity>
-4.46170

> <CNNscore>
0.3202636540

> <CNNaffinity>
3.6809623241

> <CNN_VS>
1.1788784266

> <CNNaffinity_variance>
1.2606087923

$$$$



 17 18  0  0  0  0  0  0  0  0999 V2000
    0.5423    3.0135   15.6576 C   0  0  0  0  0  0  0  0  0  0  0  0
   -0.7652    3.3635   16.4106 C   0  0  0  0  0  0  0  0  0  0  0  0
   -1.3654    4.7374   15.9867 C   0  0  0  0  0  0  0  0  0  0  0  0
   -1.2048    4.9907   14.4465 C   0  0  0  0  0  0  0  0  0  0  0  0
   -1.8302    3.8851   13.5795 C   0  0  0  0  0  0  0  0  0  0  0  0
   -0.7313    2.8359   13.4316 C   0  0  0  0  0  0  0  0  0  0  0  0
    0.4673    3.4301   14.1713 C   0  0  0  0  0  0  0  0  0  0  0  0
    0.2250    4.8725   14.1098 N   0  0  0  0  0  0  0  0  0  0  0  0
    0.4114    5.2348   13.1747 H   0  0  0  0  0  0  0  0  0  0  0  0
    1.9782    1.1835   15.1338 C   0  0  0  0  0  0  0  0  0  0  0  0
    0.7592    1.5922   15.7413 O   0  0  0  0  0  0  0  0  0  0  0  0
   -0.5060    3.4164   17.8360 O   0  0  0  0  0  0  0  0  0  0  0  0
   -1.3247    2.5337   18.5930 C   0  0  0  0  0  0  0  0  0  0  0  0
   -2.7766    4.7304   16.3348 O   0  0  0  0  0  0  0  0  0  0  0  0
   -3.1471    5.8337   17.1532 C   0  0  0  0  0  0  0  0  0  0  0  0
   -1.6015    6.2843   14.0078 O   0  0  0  0  0  0  0  0  0  0  0  0
   -0.7222    7.3517   14.3189 C   0  0  0  0  0  0  0  0  0  0  0  0
 10 11  1  0
  1 11  1  0
  1  2  1  0
  2 12  1  0
 12 13  1  0
  2  3  1  0
  3 14  1  0
 14 15  1  0
  3  4  1  0
  4 16  1  0
 16 17  1  0
  4  5  1  0
  5  6  1  0
  7  6  1  0
  7  8  1  0
  7  1  1  0
  8  4  1  0
  8  9  1  0
M  END
> <minimizedAffinity>
-4.50755

> <CNNscore>
0.3147869706

> <CNNaffinity>
3.5354454517

> <CNN_VS>
1.1129121780

> <CNNaffinity_variance>
0.5400209427

$$$$



 17 18  0  0  0  0  0  0  0  0999 V2000
   -1.2348    6.3224   13.9864 C   0  0  0  0  0  0  0  0  0  0  0  0
   -1.8665    6.2650   15.3995 C   0  0  0  0  0  0  0  0  0  0  0  0
   -1.9593    4.8177   15.9689 C   0  0  0  0  0  0  0  0  0  0  0  0
   -0.6985    3.9633   15.5912 C   0  0  0  0  0  0  0  0  0  0  0  0
    0.6254    4.5959   16.0516 C   0  0  0  0  0  0  0  0  0  0  0  0
    1.0282    5.5310   14.9142 C   0  0  0  0  0  0  0  0  0  0  0  0
   -0.0552    5.3329   13.8540 C   0  0  0  0  0  0  0  0  0  0  0  0
   -0.5545    3.9837   14.1247 N   0  0  0  0  0  0  0  0  0  0  0  0
    0.1128    3.2779   13.8133 H   0  0  0  0  0  0  0  0  0  0  0  0
   -1.4173    8.2897   12.6516 C   0  0  0  0  0  0  0  0  0  0  0  0
   -0.7605    7.6606   13.7447 O   0  0  0  0  0  0  0  0  0  0  0  0
   -3.2100    6.8079   15.3538 O   0  0  0  0  0  0  0  0  0  0  0  0
   -4.0805    6.0914   14.4870 C   0  0  0  0  0  0  0  0  0  0  0  0
   -2.0652    4.9170   17.4152 O   0  0  0  0  0  0  0  0  0  0  0  0
   -1.4621    6.0976   17.9316 C   0  0  0  0  0  0  0  0  0  0  0  0
   -0.7747    2.5904   15.9551 O   0  0  0  0  0  0  0  0  0  0  0  0
    0.1701    2.1389   16.9104 C   0  0  0  0  0  0  0  0  0  0  0  0
 10 11  1  0
  1 11  1  0
  1  2  1  0
  2 12  1  0
 12 13  1  0
  2  3  1  0
  3 14  1  0
 14 15  1  0
  3  4  1  0
  4 16  1  0
 16 17  1  0
  4  5  1  0
  5  6  1  0
  7  6  1  0
  7  8  1  0
  7  1  1  0
  8  4  1  0
  8  9  1  0
M  END
> <minimizedAffinity>
-5.05941

> <CNNscore>
0.3125395179

> <CNNaffinity>
3.4733121395

> <CNN_VS>
1.0855473280

> <CNNaffinity_variance>
0.6524307132

$$$$



 17 18  0  0  0  0  0  0  0  0999 V2000
   -0.0532    2.5850   16.5292 C   0  0  0  0  0  0  0  0  0  0  0  0
    0.3099    4.0789   16.3408 C   0  0  0  0  0  0  0  0  0  0  0  0
   -0.9135    4.9602   15.9483 C   0  0  0  0  0  0  0  0  0  0  0  0
   -2.2158    4.5142   16.7014 C   0  0  0  0  0  0  0  0  0  0  0  0
   -2.0666    4.5223   18.2320 C   0  0  0  0  0  0  0  0  0  0  0  0
   -1.5023    3.1464   18.5770 C   0  0  0  0  0  0  0  0  0  0  0  0
   -1.4182    2.4197   17.2347 C   0  0  0  0  0  0  0  0  0  0  0  0
   -2.4388    3.0844   16.4226 N   0  0  0  0  0  0  0  0  0  0  0  0
   -3.3756    2.7984   16.7072 H   0  0  0  0  0  0  0  0  0  0  0  0
    1.0251    0.5471   17.1370 C   0  0  0  0  0  0  0  0  0  0  0  0
    0.9702    1.9557   17.3234 O   0  0  0  0  0  0  0  0  0  0  0  0
    1.3021    4.2094   15.2919 O   0  0  0  0  0  0  0  0  0  0  0  0
    0.9758    3.4868   14.1114 C   0  0  0  0  0  0  0  0  0  0  0  0
   -0.5973    6.3360   16.2947 O   0  0  0  0  0  0  0  0  0  0  0  0
   -1.7514    7.1653   16.3642 C   0  0  0  0  0  0  0  0  0  0  0  0
   -3.4034    5.1801   16.2898 O   0  0  0  0  0  0  0  0  0  0  0  0
   -3.8437    4.9222   14.9673 C   0  0  0  0  0  0  0  0  0  0  0  0
 10 11  1  0
  1 11  1  0
  1  2  1  0
  2 12  1  0
 12 13  1  0
  2  3  1  0
  3 14  1  0
 14 15  1  0
  3  4  1  0
  4 16  1  0
 16 17  1  0
  4  5  1  0
  5  6  1  0
  7  6  1  0
  7  8  1  0
  7  1  1  0
  8  4  1  0
  8  9  1  0
M  END
> <minimizedAffinity>
-5.40081

> <CNNscore>
0.3048928976

> <CNNaffinity>
3.7103621960

> <CNN_VS>
1.1312631369

> <CNNaffinity_variance>
0.4695471823

$$$$



 17 18  0  0  0  0  0  0  0  0999 V2000
    0.2212    6.2423   14.9226 C   0  0  0  0  0  0  0  0  0  0  0  0
    0.5489    4.8465   14.3365 C   0  0  0  0  0  0  0  0  0  0  0  0
    0.7029    3.7461   15.4286 C   0  0  0  0  0  0  0  0  0  0  0  0
   -0.3349    3.9322   16.5907 C   0  0  0  0  0  0  0  0  0  0  0  0
   -1.7942    3.9522   16.1059 C   0  0  0  0  0  0  0  0  0  0  0  0
   -2.0671    5.4108   15.7477 C   0  0  0  0  0  0  0  0  0  0  0  0
   -0.7716    6.1409   16.1025 C   0  0  0  0  0  0  0  0  0  0  0  0
   -0.1738    5.2923   17.1346 N   0  0  0  0  0  0  0  0  0  0  0  0
   -0.6681    5.3922   18.0212 H   0  0  0  0  0  0  0  0  0  0  0  0
   -1.1854    6.3147   12.9987 C   0  0  0  0  0  0  0  0  0  0  0  0
   -0.3571    7.0566   13.8850 O   0  0  0  0  0  0  0  0  0  0  0  0
    1.7937    4.9103   13.5960 O   0  0  0  0  0  0  0  0  0  0  0  0
    1.6989    4.3729   12.2828 C   0  0  0  0  0  0  0  0  0  0  0  0
    0.4939    2.4569   14.7906 O   0  0  0  0  0  0  0  0  0  0  0  0
    1.6251    1.6004   14.8966 C   0  0  0  0  0  0  0  0  0  0  0  0
   -0.1638    3.0500   17.6933 O   0  0  0  0  0  0  0  0  0  0  0  0
   -1.3345    2.7140   18.4183 C   0  0  0  0  0  0  0  0  0  0  0  0
 10 11  1  0
  1 11  1  0
  1  2  1  0
  2 12  1  0
 12 13  1  0
  2  3  1  0
  3 14  1  0
 14 15  1  0
  3  4  1  0
  4 16  1  0
 16 17  1  0
  4  5  1  0
  5  6  1  0
  7  6  1  0
  7  8  1  0
  7  1  1  0
  8  4  1  0
  8  9  1  0
M  END
> <minimizedAffinity>
-5.17462

> <CNNscore>
0.2869995236

> <CNNaffinity>
4.2358040810

> <CNN_VS>
1.2156738043

> <CNNaffinity_variance>
0.1556167454

$$$$



 17 18  0  0  0  0  0  0  0  0999 V2000
    0.2205    3.6683   13.3266 C   0  0  0  0  0  0  0  0  0  0  0  0
    0.2185    4.7491   12.2171 C   0  0  0  0  0  0  0  0  0  0  0  0
   -0.8841    5.8309   12.4199 C   0  0  0  0  0  0  0  0  0  0  0  0
   -1.0637    6.2001   13.9344 C   0  0  0  0  0  0  0  0  0  0  0  0
    0.2356    6.6817   14.6015 C   0  0  0  0  0  0  0  0  0  0  0  0
    0.9225    5.4071   15.0850 C   0  0  0  0  0  0  0  0  0  0  0  0
   -0.0492    4.2856   14.7174 C   0  0  0  0  0  0  0  0  0  0  0  0
   -1.3481    4.9595   14.6772 N   0  0  0  0  0  0  0  0  0  0  0  0
   -1.6820    5.1657   15.6187 H   0  0  0  0  0  0  0  0  0  0  0  0
    1.4054    1.6005   13.3984 C   0  0  0  0  0  0  0  0  0  0  0  0
    1.5053    3.0176   13.3376 O   0  0  0  0  0  0  0  0  0  0  0  0
   -0.0092    4.1233   10.9293 O   0  0  0  0  0  0  0  0  0  0  0  0
    1.1870    3.8767   10.2008 C   0  0  0  0  0  0  0  0  0  0  0  0
   -0.4866    7.0135   11.6740 O   0  0  0  0  0  0  0  0  0  0  0  0
    0.9247    7.1277   11.5344 C   0  0  0  0  0  0  0  0  0  0  0  0
   -2.1486    7.0768   14.2125 O   0  0  0  0  0  0  0  0  0  0  0  0
   -3.4317    6.4814   14.3037 C   0  0  0  0  0  0  0  0  0  0  0  0
 10 11  1  0
  1 11  1  0
  1  2  1  0
  2 12  1  0
 12 13  1  0
  2  3  1  0
  3 14  1  0
 14 15  1  0
  3  4  1  0
  4 16  1  0
 16 17  1  0
  4  5  1  0
  5  6  1  0
  7  6  1  0
  7  8  1  0
  7  1  1  0
  8  4  1  0
  8  9  1  0
M  END
> <minimizedAffinity>
-4.34731

> <CNNscore>
0.2775353491

> <CNNaffinity>
3.6405560970

> <CNN_VS>
1.0103830099

> <CNNaffinity_variance>
0.5661411881

$$$$



 17 18  0  0  0  0  0  0  0  0999 V2000
   -0.4379    4.2836   14.3329 C   0  0  0  0  0  0  0  0  0  0  0  0
   -1.9767    4.4012   14.4639 C   0  0  0  0  0  0  0  0  0  0  0  0
   -2.4441    4.7128   15.9171 C   0  0  0  0  0  0  0  0  0  0  0  0
   -1.4739    5.7142   16.6369 C   0  0  0  0  0  0  0  0  0  0  0  0
   -1.2931    7.0388   15.8769 C   0  0  0  0  0  0  0  0  0  0  0  0
   -0.1519    6.7751   14.8978 C   0  0  0  0  0  0  0  0  0  0  0  0
    0.2854    5.3411   15.1971 C   0  0  0  0  0  0  0  0  0  0  0  0
   -0.1146    5.1467   16.5917 N   0  0  0  0  0  0  0  0  0  0  0  0
    0.5109    5.6458   17.2242 H   0  0  0  0  0  0  0  0  0  0  0  0
    1.2444    4.0248   12.6632 C   0  0  0  0  0  0  0  0  0  0  0  0
   -0.0745    4.4707   12.9519 O   0  0  0  0  0  0  0  0  0  0  0  0
   -2.5957    3.1542   14.0594 O   0  0  0  0  0  0  0  0  0  0  0  0
   -2.2035    2.0434   14.8562 C   0  0  0  0  0  0  0  0  0  0  0  0
   -3.7742    5.2940   15.8393 O   0  0  0  0  0  0  0  0  0  0  0  0
   -4.0421    5.8883   14.5747 C   0  0  0  0  0  0  0  0  0  0  0  0
   -1.7563    5.9370   18.0131 O   0  0  0  0  0  0  0  0  0  0  0  0
   -1.7734    4.7901   18.8459 C   0  0  0  0  0  0  0  0  0  0  0  0
 10 11  1  0
  1 11  1  0
  1  2  1  0
  2 12  1  0
 12 13  1  0
  2  3  1  0
  3 14  1  0
 14 15  1  0
  3  4  1  0
  4 16  1  0
 16 17  1  0
  4  5  1  0
  5  6  1  0
  7  6  1  0
  7  8  1  0
  7  1  1  0
  8  4  1  0
  8  9  1  0
M  END
> <minimizedAffinity>
-5.37736

> <CNNscore>
0.2560612559

> <CNNaffinity>
3.3625819683

> <CNN_VS>
0.8610269427

> <CNNaffinity_variance>
0.9264452457

$$$$



 17 18  0  0  0  0  0  0  0  0999 V2000
    0.8067    4.4975   14.8269 C   0  0  0  0  0  0  0  0  0  0  0  0
   -0.0717    3.9341   15.9715 C   0  0  0  0  0  0  0  0  0  0  0  0
   -0.7699    5.0462   16.8099 C   0  0  0  0  0  0  0  0  0  0  0  0
   -1.2501    6.2375   15.9086 C   0  0  0  0  0  0  0  0  0  0  0  0
   -2.1939    5.8013   14.7755 C   0  0  0  0  0  0  0  0  0  0  0  0
   -1.2696    5.4179   13.6227 C   0  0  0  0  0  0  0  0  0  0  0  0
    0.1365    5.7119   14.1456 C   0  0  0  0  0  0  0  0  0  0  0  0
   -0.0858    6.7434   15.1602 N   0  0  0  0  0  0  0  0  0  0  0  0
   -0.2927    7.6434   14.7271 H   0  0  0  0  0  0  0  0  0  0  0  0
    1.8071    3.8909   12.7493 C   0  0  0  0  0  0  0  0  0  0  0  0
    1.0152    3.4607   13.8493 O   0  0  0  0  0  0  0  0  0  0  0  0
    0.7494    3.1513   16.8742 O   0  0  0  0  0  0  0  0  0  0  0  0
    0.3740    1.7810   16.9359 C   0  0  0  0  0  0  0  0  0  0  0  0
   -1.9147    4.4463   17.4751 O   0  0  0  0  0  0  0  0  0  0  0  0
   -1.8312    4.5257   18.8932 C   0  0  0  0  0  0  0  0  0  0  0  0
   -1.7701    7.3544   16.6195 O   0  0  0  0  0  0  0  0  0  0  0  0
   -2.6242    8.2212   15.8925 C   0  0  0  0  0  0  0  0  0  0  0  0
 10 11  1  0
  1 11  1  0
  1  2  1  0
  2 12  1  0
 12 13  1  0
  2  3  1  0
  3 14  1  0
 14 15  1  0
  3  4  1  0
  4 16  1  0
 16 17  1  0
  4  5  1  0
  5  6  1  0
  7  6  1  0
  7  8  1  0
  7  1  1  0
  8  4  1  0
  8  9  1  0
M  END
> <minimizedAffinity>
-5.20651

> <CNNscore>
0.2477423102

> <CNNaffinity>
3.5711114407

> <CNN_VS>
0.8847153783

> <CNNaffinity_variance>
0.6403104663

$$$$
