


 14 14  0  0  0  0  0  0  0  0999 V2000
   15.6979    3.8825   16.0823 C   0  0  0  0  0  0  0  0  0  0  0  0
   14.8633    4.9492   15.7360 C   0  0  0  0  0  0  0  0  0  0  0  0
   15.4011    6.0507   15.0640 C   0  0  0  0  0  0  0  0  0  0  0  0
   16.7607    6.0763   14.7456 C   0  0  0  0  0  0  0  0  0  0  0  0
   17.4811    7.5686   13.8369 Br  0  0  0  0  0  0  0  0  0  0  0  0
   17.5902    5.0120   15.0917 C   0  0  0  0  0  0  0  0  0  0  0  0
   17.0500    3.9174   15.7609 C   0  0  0  0  0  0  0  0  0  0  0  0
   17.8621    2.9029   16.0861 F   0  0  0  0  0  0  0  0  0  0  0  0
   15.5149    1.1714   15.9226 N   0  0  0  0  0  0  0  0  0  0  0  0
   15.1049    2.4641   16.9253 S   0  0  0  0  0  0  0  0  0  0  0  0
   13.6615    2.4860   16.9186 O   0  0  0  0  0  0  0  0  0  0  0  0
   15.8945    2.2647   18.1171 O   0  0  0  0  0  0  0  0  0  0  0  0
   15.2006    0.2989   16.3471 H   0  0  0  0  0  0  0  0  0  0  0  0
   16.5271    1.1444   15.7995 H   0  0  0  0  0  0  0  0  0  0  0  0
  9 10  1  0
 10 11  2  0
 10 12  2  0
 10  1  1  0
  1  2  2  0
  2  3  1  0
  3  4  2  0
  4  5  1  0
  4  6  1  0
  6  7  2  0
  7  8  1  0
  7  1  1  0
  9 13  1  0
  9 14  1  0
M  END
> <minimizedAffinity>
-7.43039

> <CNNscore>
0.9693133831

> <CNNaffinity>
6.7279281616

> <CNN_VS>
6.5214710236

> <CNNaffinity_variance>
0.8036541939

$$$$



 14 14  0  0  0  0  0  0  0  0999 V2000
   15.8475    3.7788   16.0701 C   0  0  0  0  0  0  0  0  0  0  0  0
   17.1520    3.7591   15.5681 C   0  0  0  0  0  0  0  0  0  0  0  0
   17.6431    4.8787   14.8902 C   0  0  0  0  0  0  0  0  0  0  0  0
   16.8306    6.0019   14.7209 C   0  0  0  0  0  0  0  0  0  0  0  0
   17.5009    7.5121   13.8034 Br  0  0  0  0  0  0  0  0  0  0  0  0
   15.5310    6.0191   15.2222 C   0  0  0  0  0  0  0  0  0  0  0  0
   15.0464    4.9018   15.8965 C   0  0  0  0  0  0  0  0  0  0  0  0
   13.7945    4.9354   16.3719 F   0  0  0  0  0  0  0  0  0  0  0  0
   15.5539    1.0738   15.9951 N   0  0  0  0  0  0  0  0  0  0  0  0
   15.1543    2.4182   16.9318 S   0  0  0  0  0  0  0  0  0  0  0  0
   13.7152    2.5005   16.8547 O   0  0  0  0  0  0  0  0  0  0  0  0
   15.8779    2.2294   18.1664 O   0  0  0  0  0  0  0  0  0  0  0  0
   15.1823    0.2313   16.4337 H   0  0  0  0  0  0  0  0  0  0  0  0
   16.5686    0.9998   15.9220 H   0  0  0  0  0  0  0  0  0  0  0  0
  9 10  1  0
 10 11  2  0
 10 12  2  0
 10  1  1  0
  1  2  2  0
  2  3  1  0
  3  4  2  0
  4  5  1  0
  4  6  1  0
  6  7  2  0
  7  8  1  0
  7  1  1  0
  9 13  1  0
  9 14  1  0
M  END
> <minimizedAffinity>
-7.18822

> <CNNscore>
0.9692033529

> <CNNaffinity>
7.1227335930

> <CNN_VS>
6.9033770561

> <CNNaffinity_variance>
1.5744543076

$$$$



 14 14  0  0  0  0  0  0  0  0999 V2000
   15.6930    3.8933   15.9526 C   0  0  0  0  0  0  0  0  0  0  0  0
   14.8746    4.9573   15.5623 C   0  0  0  0  0  0  0  0  0  0  0  0
   15.4470    6.0708   14.9405 C   0  0  0  0  0  0  0  0  0  0  0  0
   16.8248    6.1109   14.7156 C   0  0  0  0  0  0  0  0  0  0  0  0
   17.5922    7.6194   13.8745 Br  0  0  0  0  0  0  0  0  0  0  0  0
   17.6382    5.0493   15.1055 C   0  0  0  0  0  0  0  0  0  0  0  0
   17.0635    3.9427   15.7243 C   0  0  0  0  0  0  0  0  0  0  0  0
   17.8604    2.9310   16.0927 F   0  0  0  0  0  0  0  0  0  0  0  0
   15.6768    2.5236   18.3047 N   0  0  0  0  0  0  0  0  0  0  0  0
   15.0565    2.4605   16.7376 S   0  0  0  0  0  0  0  0  0  0  0  0
   15.6709    1.2939   16.1500 O   0  0  0  0  0  0  0  0  0  0  0  0
   13.6309    2.6133   16.9043 O   0  0  0  0  0  0  0  0  0  0  0  0
   15.3490    1.7149   18.8329 H   0  0  0  0  0  0  0  0  0  0  0  0
   15.3604    3.3790   18.7615 H   0  0  0  0  0  0  0  0  0  0  0  0
  9 10  1  0
 10 11  2  0
 10 12  2  0
 10  1  1  0
  1  2  2  0
  2  3  1  0
  3  4  2  0
  4  5  1  0
  4  6  1  0
  6  7  2  0
  7  8  1  0
  7  1  1  0
  9 13  1  0
  9 14  1  0
M  END
> <minimizedAffinity>
-6.56303

> <CNNscore>
0.9129583240

> <CNNaffinity>
6.0396308899

> <CNN_VS>
5.5139312744

> <CNNaffinity_variance>
0.1952554733

$$$$



 14 14  0  0  0  0  0  0  0  0999 V2000
   21.8376   13.5341   24.6722 C   0  0  0  0  0  0  0  0  0  0  0  0
   22.3648   14.6987   25.2380 C   0  0  0  0  0  0  0  0  0  0  0  0
   23.0964   15.5802   24.4369 C   0  0  0  0  0  0  0  0  0  0  0  0
   23.2934   15.2917   23.0847 C   0  0  0  0  0  0  0  0  0  0  0  0
   24.2835   16.4879   22.0072 Br  0  0  0  0  0  0  0  0  0  0  0  0
   22.7670   14.1306   22.5232 C   0  0  0  0  0  0  0  0  0  0  0  0
   22.0393   13.2558   23.3251 C   0  0  0  0  0  0  0  0  0  0  0  0
   21.5403   12.1441   22.7689 F   0  0  0  0  0  0  0  0  0  0  0  0
   19.4106   12.3126   24.8337 N   0  0  0  0  0  0  0  0  0  0  0  0
   20.9089   12.3762   25.6055 S   0  0  0  0  0  0  0  0  0  0  0  0
   20.6259   12.9416   26.9031 O   0  0  0  0  0  0  0  0  0  0  0  0
   21.4730   11.0615   25.4135 O   0  0  0  0  0  0  0  0  0  0  0  0
   18.8046   11.6530   25.3217 H   0  0  0  0  0  0  0  0  0  0  0  0
   19.5378   12.0076   23.8688 H   0  0  0  0  0  0  0  0  0  0  0  0
  9 10  1  0
 10 11  2  0
 10 12  2  0
 10  1  1  0
  1  2  2  0
  2  3  1  0
  3  4  2  0
  4  5  1  0
  4  6  1  0
  6  7  2  0
  7  8  1  0
  7  1  1  0
  9 13  1  0
  9 14  1  0
M  END
> <minimizedAffinity>
-4.25135

> <CNNscore>
0.8814781904

> <CNNaffinity>
4.2989678383

> <CNN_VS>
3.7894463539

> <CNNaffinity_variance>
0.7401812673

$$$$



 14 14  0  0  0  0  0  0  0  0999 V2000
   16.4944    4.1776   14.3388 C   0  0  0  0  0  0  0  0  0  0  0  0
   17.1512    4.2286   13.1058 C   0  0  0  0  0  0  0  0  0  0  0  0
   17.1852    5.4324   12.3960 C   0  0  0  0  0  0  0  0  0  0  0  0
   16.5660    6.5684   12.9219 C   0  0  0  0  0  0  0  0  0  0  0  0
   16.6159    8.1927   11.9569 Br  0  0  0  0  0  0  0  0  0  0  0  0
   15.9123    6.5151   14.1508 C   0  0  0  0  0  0  0  0  0  0  0  0
   15.8810    5.3140   14.8539 C   0  0  0  0  0  0  0  0  0  0  0  0
   15.2480    5.2806   16.0339 F   0  0  0  0  0  0  0  0  0  0  0  0
   17.6996    2.8214   16.3678 N   0  0  0  0  0  0  0  0  0  0  0  0
   16.4049    2.7094   15.2929 S   0  0  0  0  0  0  0  0  0  0  0  0
   16.7288    1.5836   14.4494 O   0  0  0  0  0  0  0  0  0  0  0  0
   15.2307    2.7673   16.1304 O   0  0  0  0  0  0  0  0  0  0  0  0
   17.7177    1.9952   16.9657 H   0  0  0  0  0  0  0  0  0  0  0  0
   17.5917    3.6559   16.9443 H   0  0  0  0  0  0  0  0  0  0  0  0
  9 10  1  0
 10 11  2  0
 10 12  2  0
 10  1  1  0
  1  2  2  0
  2  3  1  0
  3  4  2  0
  4  5  1  0
  4  6  1  0
  6  7  2  0
  7  8  1  0
  7  1  1  0
  9 13  1  0
  9 14  1  0
M  END
> <minimizedAffinity>
-5.02008

> <CNNscore>
0.6807704568

> <CNNaffinity>
5.6998372078

> <CNN_VS>
3.8802807331

> <CNNaffinity_variance>
0.4745424092

$$$$



 14 14  0  0  0  0  0  0  0  0999 V2000
   17.1894    5.5908   14.7873 C   0  0  0  0  0  0  0  0  0  0  0  0
   17.6233    4.4579   15.4820 C   0  0  0  0  0  0  0  0  0  0  0  0
   16.6900    3.6732   16.1656 C   0  0  0  0  0  0  0  0  0  0  0  0
   15.3387    4.0256   16.1489 C   0  0  0  0  0  0  0  0  0  0  0  0
   14.0822    2.9601   17.0752 Br  0  0  0  0  0  0  0  0  0  0  0  0
   14.9088    5.1549   15.4558 C   0  0  0  0  0  0  0  0  0  0  0  0
   15.8420    5.9332   14.7767 C   0  0  0  0  0  0  0  0  0  0  0  0
   15.4113    7.0157   14.1155 F   0  0  0  0  0  0  0  0  0  0  0  0
   19.8211    5.9864   14.2162 N   0  0  0  0  0  0  0  0  0  0  0  0
   18.2930    6.6286   13.9047 S   0  0  0  0  0  0  0  0  0  0  0  0
   18.3112    7.9298   14.5293 O   0  0  0  0  0  0  0  0  0  0  0  0
   18.0946    6.4253   12.4895 O   0  0  0  0  0  0  0  0  0  0  0  0
   20.5278    6.5404   13.7325 H   0  0  0  0  0  0  0  0  0  0  0  0
   19.8590    5.0226   13.8844 H   0  0  0  0  0  0  0  0  0  0  0  0
  9 10  1  0
 10 11  2  0
 10 12  2  0
 10  1  1  0
  1  2  2  0
  2  3  1  0
  3  4  2  0
  4  5  1  0
  4  6  1  0
  6  7  2  0
  7  8  1  0
  7  1  1  0
  9 13  1  0
  9 14  1  0
M  END
> <minimizedAffinity>
-5.84397

> <CNNscore>
0.6282789707

> <CNNaffinity>
4.1921920776

> <CNN_VS>
2.6338660717

> <CNNaffinity_variance>
0.3326697052

$$$$



 14 14  0  0  0  0  0  0  0  0999 V2000
   16.5480    3.9775   14.6769 C   0  0  0  0  0  0  0  0  0  0  0  0
   16.2583    5.3450   14.6671 C   0  0  0  0  0  0  0  0  0  0  0  0
   16.3640    6.0600   13.4705 C   0  0  0  0  0  0  0  0  0  0  0  0
   16.7561    5.4055   12.3007 C   0  0  0  0  0  0  0  0  0  0  0  0
   16.8968    6.3782   10.6865 Br  0  0  0  0  0  0  0  0  0  0  0  0
   17.0441    4.0427   12.3131 C   0  0  0  0  0  0  0  0  0  0  0  0
   16.9375    3.3350   13.5071 C   0  0  0  0  0  0  0  0  0  0  0  0
   17.2183    2.0253   13.5010 F   0  0  0  0  0  0  0  0  0  0  0  0
   15.5883    1.6296   15.6644 N   0  0  0  0  0  0  0  0  0  0  0  0
   16.4407    3.0073   16.1334 S   0  0  0  0  0  0  0  0  0  0  0  0
   15.5698    3.6712   17.0739 O   0  0  0  0  0  0  0  0  0  0  0  0
   17.7580    2.5229   16.4702 O   0  0  0  0  0  0  0  0  0  0  0  0
   15.4821    1.0065   16.4650 H   0  0  0  0  0  0  0  0  0  0  0  0
   16.1000    1.1486   14.9247 H   0  0  0  0  0  0  0  0  0  0  0  0
  9 10  1  0
 10 11  2  0
 10 12  2  0
 10  1  1  0
  1  2  2  0
  2  3  1  0
  3  4  2  0
  4  5  1  0
  4  6  1  0
  6  7  2  0
  7  8  1  0
  7  1  1  0
  9 13  1  0
  9 14  1  0
M  END
> <minimizedAffinity>
-5.33901

> <CNNscore>
0.6229117513

> <CNNaffinity>
5.3442978859

> <CNN_VS>
3.3290259838

> <CNNaffinity_variance>
0.0782349259

$$$$



 14 14  0  0  0  0  0  0  0  0999 V2000
   14.3171   10.0408    9.5754 C   0  0  0  0  0  0  0  0  0  0  0  0
   14.5392   11.4153    9.4502 C   0  0  0  0  0  0  0  0  0  0  0  0
   13.8159   12.1434    8.5010 C   0  0  0  0  0  0  0  0  0  0  0  0
   12.8822   11.4949    7.6898 C   0  0  0  0  0  0  0  0  0  0  0  0
   11.9077   12.4853    6.4086 Br  0  0  0  0  0  0  0  0  0  0  0  0
   12.6626   10.1251    7.8166 C   0  0  0  0  0  0  0  0  0  0  0  0
   13.3854    9.4044    8.7632 C   0  0  0  0  0  0  0  0  0  0  0  0
   13.1617    8.0881    8.8715 F   0  0  0  0  0  0  0  0  0  0  0  0
   15.5383    7.6311    9.9080 N   0  0  0  0  0  0  0  0  0  0  0  0
   15.1807    9.0542   10.7394 S   0  0  0  0  0  0  0  0  0  0  0  0
   14.2647    8.6481   11.7785 O   0  0  0  0  0  0  0  0  0  0  0  0
   16.4665    9.6564   10.9996 O   0  0  0  0  0  0  0  0  0  0  0  0
   16.0468    6.9963   10.5236 H   0  0  0  0  0  0  0  0  0  0  0  0
   16.1130    7.8482    9.0938 H   0  0  0  0  0  0  0  0  0  0  0  0
  9 10  1  0
 10 11  2  0
 10 12  2  0
 10  1  1  0
  1  2  2  0
  2  3  1  0
  3  4  2  0
  4  5  1  0
  4  6  1  0
  6  7  2  0
  7  8  1  0
  7  1  1  0
  9 13  1  0
  9 14  1  0
M  END
> <minimizedAffinity>
-4.21114

> <CNNscore>
0.5263145566

> <CNNaffinity>
3.3778154850

> <CNN_VS>
1.7777934074

> <CNNaffinity_variance>
1.1387692690

$$$$



 14 14  0  0  0  0  0  0  0  0999 V2000
   26.5414   -3.4235    6.4687 C   0  0  0  0  0  0  0  0  0  0  0  0
   27.6835   -3.0431    5.7580 C   0  0  0  0  0  0  0  0  0  0  0  0
   27.8174   -1.7180    5.3332 C   0  0  0  0  0  0  0  0  0  0  0  0
   26.8142   -0.7899    5.6210 C   0  0  0  0  0  0  0  0  0  0  0  0
   27.0017    0.9999    5.0437 Br  0  0  0  0  0  0  0  0  0  0  0  0
   25.6771   -1.1715    6.3294 C   0  0  0  0  0  0  0  0  0  0  0  0
   25.5483   -2.4922    6.7502 C   0  0  0  0  0  0  0  0  0  0  0  0
   24.4484   -2.8418    7.4302 F   0  0  0  0  0  0  0  0  0  0  0  0
   27.6566   -5.3975    7.9748 N   0  0  0  0  0  0  0  0  0  0  0  0
   26.2947   -5.0635    7.0377 S   0  0  0  0  0  0  0  0  0  0  0  0
   26.3942   -5.9670    5.9163 O   0  0  0  0  0  0  0  0  0  0  0  0
   25.1970   -5.0727    7.9750 O   0  0  0  0  0  0  0  0  0  0  0  0
   27.5891   -6.3448    8.3470 H   0  0  0  0  0  0  0  0  0  0  0  0
   27.7102   -4.7322    8.7460 H   0  0  0  0  0  0  0  0  0  0  0  0
  9 10  1  0
 10 11  2  0
 10 12  2  0
 10  1  1  0
  1  2  2  0
  2  3  1  0
  3  4  2  0
  4  5  1  0
  4  6  1  0
  6  7  2  0
  7  8  1  0
  7  1  1  0
  9 13  1  0
  9 14  1  0
M  END
> <minimizedAffinity>
-6.34598

> <CNNscore>
0.5155937672

> <CNNaffinity>
3.5941932201

> <CNN_VS>
1.8531435728

> <CNNaffinity_variance>
0.5007667542

$$$$
