


 25 26  0  0  0  0  0  0  0  0999 V2000
   33.0543   22.7726   27.8356 C   0  0  0  0  0  0  0  0  0  0  0  0
   32.9959   21.3845   28.1765 O   0  0  0  0  0  0  0  0  0  0  0  0
   32.0214   20.6584   27.4057 C   0  0  0  0  0  0  0  0  0  0  0  0
   32.4301   20.6765   25.9295 C   0  0  0  0  0  0  0  0  0  0  0  0
   31.4809   19.9867   25.1153 O   0  0  0  0  0  0  0  0  0  0  0  0
   32.5348   22.1255   25.4544 C   0  0  0  0  0  0  0  0  0  0  0  0
   33.0140   22.1357   24.0991 O   0  0  0  0  0  0  0  0  0  0  0  0
   33.4621   22.9543   26.3484 C   0  0  0  0  0  0  0  0  0  0  0  0
   33.4069   24.3044   25.8564 O   0  0  0  0  0  0  0  0  0  0  0  0
   30.6174   20.4231   25.1850 H   0  0  0  0  0  0  0  0  0  0  0  0
   33.8940   21.7291   24.0642 H   0  0  0  0  0  0  0  0  0  0  0  0
   32.4896   24.6190   25.8775 H   0  0  0  0  0  0  0  0  0  0  0  0
   36.4434   25.4159   31.2564 O   0  0  0  0  0  0  0  0  0  0  0  0
   35.7105   24.7971   30.4941 C   0  0  0  0  0  0  0  0  0  0  0  0
   34.3475   24.7819   30.6410 N   0  0  0  0  0  0  0  0  0  0  0  0
   33.4516   24.1833   29.7949 C   0  0  0  0  0  0  0  0  0  0  0  0
   32.2398   24.3273   29.9525 O   0  0  0  0  0  0  0  0  0  0  0  0
   33.9923   23.4483   28.7474 N   0  0  0  0  0  0  0  0  0  0  0  0
   35.3615   23.4010   28.5365 C   0  0  0  0  0  0  0  0  0  0  0  0
   36.2176   24.0261   29.3442 C   0  0  0  0  0  0  0  0  0  0  0  0
   37.5484   23.9935   29.1508 F   0  0  0  0  0  0  0  0  0  0  0  0
   33.9781   25.2443   31.4278 H   0  0  0  0  0  0  0  0  0  0  0  0
   31.9418   19.2240   27.9437 C   0  0  0  0  0  0  0  0  0  0  0  0
   33.0007   18.4423   27.3858 O   0  0  0  0  0  0  0  0  0  0  0  0
   32.9174   18.4279   26.4195 H   0  0  0  0  0  0  0  0  0  0  0  0
 13 14  2  0
 14 15  1  0
 15 16  1  0
 16 17  2  0
 16 18  1  0
  1 18  1  0
  1  2  1  0
  2  3  1  0
  3 23  1  0
 23 24  1  0
  3  4  1  0
  4  5  1  0
  4  6  1  0
  6  7  1  0
  6  8  1  0
  8  9  1  0
 18 19  1  0
 19 20  2  0
 20 21  1  0
 20 14  1  0
  8  1  1  0
 15 22  1  0
 24 25  1  0
  5 10  1  0
  7 11  1  0
  9 12  1  0
M  END
> <minimizedAffinity>
-11.15082

> <CNNscore>
0.9666031003

> <CNNaffinity>
4.7650237083

> <CNN_VS>
4.6058864594

> <CNNaffinity_variance>
0.4636412859

$$$$



 25 26  0  0  0  0  0  0  0  0999 V2000
   25.6462   24.8890   27.7285 C   0  0  0  0  0  0  0  0  0  0  0  0
   27.0624   24.7836   27.5561 O   0  0  0  0  0  0  0  0  0  0  0  0
   27.4305   23.9897   26.4136 C   0  0  0  0  0  0  0  0  0  0  0  0
   26.9368   24.6806   25.1387 C   0  0  0  0  0  0  0  0  0  0  0  0
   27.2575   23.9195   23.9734 O   0  0  0  0  0  0  0  0  0  0  0  0
   25.4205   24.8569   25.2172 C   0  0  0  0  0  0  0  0  0  0  0  0
   24.9789   25.5933   24.0642 O   0  0  0  0  0  0  0  0  0  0  0  0
   24.9950   25.5789   26.4992 C   0  0  0  0  0  0  0  0  0  0  0  0
   23.5572   25.6033   26.4982 O   0  0  0  0  0  0  0  0  0  0  0  0
   26.8237   23.0533   24.0234 H   0  0  0  0  0  0  0  0  0  0  0  0
   25.3974   26.4683   24.0596 H   0  0  0  0  0  0  0  0  0  0  0  0
   23.2185   24.6955   26.4516 H   0  0  0  0  0  0  0  0  0  0  0  0
   24.7821   27.6526   32.3966 O   0  0  0  0  0  0  0  0  0  0  0  0
   24.9380   27.0334   31.3510 C   0  0  0  0  0  0  0  0  0  0  0  0
   25.8606   27.4088   30.4089 N   0  0  0  0  0  0  0  0  0  0  0  0
   26.1535   26.7343   29.2530 C   0  0  0  0  0  0  0  0  0  0  0  0
   27.0825   27.0927   28.5300 O   0  0  0  0  0  0  0  0  0  0  0  0
   25.3712   25.6201   28.9766 N   0  0  0  0  0  0  0  0  0  0  0  0
   24.4071   25.1813   29.8707 C   0  0  0  0  0  0  0  0  0  0  0  0
   24.1649   25.8244   31.0125 C   0  0  0  0  0  0  0  0  0  0  0  0
   23.2360   25.4091   31.8924 F   0  0  0  0  0  0  0  0  0  0  0  0
   26.3590   28.2407   30.5789 H   0  0  0  0  0  0  0  0  0  0  0  0
   28.9557   23.8253   26.4027 C   0  0  0  0  0  0  0  0  0  0  0  0
   29.5214   24.6595   25.3889 O   0  0  0  0  0  0  0  0  0  0  0  0
   29.1648   24.4040   24.5237 H   0  0  0  0  0  0  0  0  0  0  0  0
 13 14  2  0
 14 15  1  0
 15 16  1  0
 16 17  2  0
 16 18  1  0
  1 18  1  0
  1  2  1  0
  2  3  1  0
  3 23  1  0
 23 24  1  0
  3  4  1  0
  4  5  1  0
  4  6  1  0
  6  7  1  0
  6  8  1  0
  8  9  1  0
 18 19  1  0
 19 20  2  0
 20 21  1  0
 20 14  1  0
  8  1  1  0
 15 22  1  0
 24 25  1  0
  5 10  1  0
  7 11  1  0
  9 12  1  0
M  END
> <minimizedAffinity>
-9.17068

> <CNNscore>
0.3306893706

> <CNNaffinity>
4.0979065895

> <CNN_VS>
1.3551341295

> <CNNaffinity_variance>
0.1476200819

$$$$



 25 26  0  0  0  0  0  0  0  0999 V2000
   37.0926   25.6866   31.7743 C   0  0  0  0  0  0  0  0  0  0  0  0
   35.7378   25.2430   31.6554 O   0  0  0  0  0  0  0  0  0  0  0  0
   35.3904   24.8557   30.3136 C   0  0  0  0  0  0  0  0  0  0  0  0
   36.2311   23.6421   29.9050 C   0  0  0  0  0  0  0  0  0  0  0  0
   35.9405   23.2303   28.5686 O   0  0  0  0  0  0  0  0  0  0  0  0
   37.7136   24.0007   30.0048 C   0  0  0  0  0  0  0  0  0  0  0  0
   38.4947   22.8289   29.7160 O   0  0  0  0  0  0  0  0  0  0  0  0
   38.0768   24.5493   31.3880 C   0  0  0  0  0  0  0  0  0  0  0  0
   39.4622   24.9295   31.3275 O   0  0  0  0  0  0  0  0  0  0  0  0
   36.1506   23.9516   27.9550 H   0  0  0  0  0  0  0  0  0  0  0  0
   38.2939   22.1380   30.3665 H   0  0  0  0  0  0  0  0  0  0  0  0
   39.5875   25.5837   30.6223 H   0  0  0  0  0  0  0  0  0  0  0  0
   38.1007   27.4688   36.8716 O   0  0  0  0  0  0  0  0  0  0  0  0
   37.8394   27.0763   35.7408 C   0  0  0  0  0  0  0  0  0  0  0  0
   38.5593   27.4739   34.6438 N   0  0  0  0  0  0  0  0  0  0  0  0
   38.3862   27.0276   33.3602 C   0  0  0  0  0  0  0  0  0  0  0  0
   39.1627   27.3596   32.4653 O   0  0  0  0  0  0  0  0  0  0  0  0
   37.3190   26.1637   33.1487 N   0  0  0  0  0  0  0  0  0  0  0  0
   36.5332   25.7235   34.2023 C   0  0  0  0  0  0  0  0  0  0  0  0
   36.7430   26.1336   35.4528 C   0  0  0  0  0  0  0  0  0  0  0  0
   35.9922   25.7126   36.4867 F   0  0  0  0  0  0  0  0  0  0  0  0
   39.2666   28.1425   34.7923 H   0  0  0  0  0  0  0  0  0  0  0  0
   33.8910   24.5344   30.2696 C   0  0  0  0  0  0  0  0  0  0  0  0
   33.2707   25.2800   29.2194 O   0  0  0  0  0  0  0  0  0  0  0  0
   33.3911   26.2287   29.3817 H   0  0  0  0  0  0  0  0  0  0  0  0
 13 14  2  0
 14 15  1  0
 15 16  1  0
 16 17  2  0
 16 18  1  0
  1 18  1  0
  1  2  1  0
  2  3  1  0
  3 23  1  0
 23 24  1  0
  3  4  1  0
  4  5  1  0
  4  6  1  0
  6  7  1  0
  6  8  1  0
  8  9  1  0
 18 19  1  0
 19 20  2  0
 20 21  1  0
 20 14  1  0
  8  1  1  0
 15 22  1  0
 24 25  1  0
  5 10  1  0
  7 11  1  0
  9 12  1  0
M  END
> <minimizedAffinity>
-8.81283

> <CNNscore>
0.3076455593

> <CNNaffinity>
4.0479731560

> <CNN_VS>
1.2453409433

> <CNNaffinity_variance>
0.9804899693

$$$$



 25 26  0  0  0  0  0  0  0  0999 V2000
   33.0890   22.9369   27.4839 C   0  0  0  0  0  0  0  0  0  0  0  0
   31.8969   23.7175   27.3560 O   0  0  0  0  0  0  0  0  0  0  0  0
   31.0366   23.2578   26.2980 C   0  0  0  0  0  0  0  0  0  0  0  0
   30.5403   21.8467   26.6281 C   0  0  0  0  0  0  0  0  0  0  0  0
   29.6980   21.3333   25.5952 O   0  0  0  0  0  0  0  0  0  0  0  0
   31.7423   20.9180   26.7988 C   0  0  0  0  0  0  0  0  0  0  0  0
   31.2727   19.6215   27.2051 O   0  0  0  0  0  0  0  0  0  0  0  0
   32.7433   21.4615   27.8228 C   0  0  0  0  0  0  0  0  0  0  0  0
   33.8589   20.5542   27.8271 O   0  0  0  0  0  0  0  0  0  0  0  0
   30.1985   21.2807   24.7660 H   0  0  0  0  0  0  0  0  0  0  0  0
   30.8103   19.6966   28.0545 H   0  0  0  0  0  0  0  0  0  0  0  0
   34.2330   20.4975   26.9339 H   0  0  0  0  0  0  0  0  0  0  0  0
   36.1862   25.3288   31.3389 O   0  0  0  0  0  0  0  0  0  0  0  0
   35.5198   24.7673   30.4776 C   0  0  0  0  0  0  0  0  0  0  0  0
   34.1543   24.6726   30.5551 N   0  0  0  0  0  0  0  0  0  0  0  0
   33.3280   24.1330   29.6049 C   0  0  0  0  0  0  0  0  0  0  0  0
   32.1046   24.2022   29.7181 O   0  0  0  0  0  0  0  0  0  0  0  0
   33.9506   23.5474   28.5099 N   0  0  0  0  0  0  0  0  0  0  0  0
   35.3283   23.5877   28.3622 C   0  0  0  0  0  0  0  0  0  0  0  0
   36.1152   24.1559   29.2753 C   0  0  0  0  0  0  0  0  0  0  0  0
   37.4532   24.2070   29.1447 F   0  0  0  0  0  0  0  0  0  0  0  0
   33.7278   25.0252   31.3694 H   0  0  0  0  0  0  0  0  0  0  0  0
   29.8670   24.2403   26.1565 C   0  0  0  0  0  0  0  0  0  0  0  0
   29.8103   24.7296   24.8145 O   0  0  0  0  0  0  0  0  0  0  0  0
   30.6398   25.1850   24.6011 H   0  0  0  0  0  0  0  0  0  0  0  0
 13 14  2  0
 14 15  1  0
 15 16  1  0
 16 17  2  0
 16 18  1  0
  1 18  1  0
  1  2  1  0
  2  3  1  0
  3 23  1  0
 23 24  1  0
  3  4  1  0
  4  5  1  0
  4  6  1  0
  6  7  1  0
  6  8  1  0
  8  9  1  0
 18 19  1  0
 19 20  2  0
 20 21  1  0
 20 14  1  0
  8  1  1  0
 15 22  1  0
 24 25  1  0
  5 10  1  0
  7 11  1  0
  9 12  1  0
M  END
> <minimizedAffinity>
-8.98586

> <CNNscore>
0.2672094107

> <CNNaffinity>
3.6217200756

> <CNN_VS>
0.9677577019

> <CNNaffinity_variance>
1.0802968740

$$$$



 25 26  0  0  0  0  0  0  0  0999 V2000
   37.2046   26.4839   33.5918 C   0  0  0  0  0  0  0  0  0  0  0  0
   38.5602   26.3810   34.0374 O   0  0  0  0  0  0  0  0  0  0  0  0
   38.8272   27.1746   35.2079 C   0  0  0  0  0  0  0  0  0  0  0  0
   37.9947   26.6431   36.3788 C   0  0  0  0  0  0  0  0  0  0  0  0
   38.2063   27.4129   37.5631 O   0  0  0  0  0  0  0  0  0  0  0  0
   36.5129   26.6968   36.0074 C   0  0  0  0  0  0  0  0  0  0  0  0
   35.7467   26.1054   37.0704 O   0  0  0  0  0  0  0  0  0  0  0  0
   36.2284   25.9748   34.6869 C   0  0  0  0  0  0  0  0  0  0  0  0
   34.8321   26.1711   34.4049 O   0  0  0  0  0  0  0  0  0  0  0  0
   37.9358   28.3308   37.4048 H   0  0  0  0  0  0  0  0  0  0  0  0
   36.0096   25.1784   37.1814 H   0  0  0  0  0  0  0  0  0  0  0  0
   34.6419   27.1212   34.3589 H   0  0  0  0  0  0  0  0  0  0  0  0
   36.7567   23.7885   28.8264 O   0  0  0  0  0  0  0  0  0  0  0  0
   36.8388   24.3617   29.9062 C   0  0  0  0  0  0  0  0  0  0  0  0
   37.9902   24.9798   30.3207 N   0  0  0  0  0  0  0  0  0  0  0  0
   38.1464   25.7059   31.4718 C   0  0  0  0  0  0  0  0  0  0  0  0
   39.1891   26.3200   31.6953 O   0  0  0  0  0  0  0  0  0  0  0  0
   37.0579   25.7319   32.3345 N   0  0  0  0  0  0  0  0  0  0  0  0
   35.8606   25.1205   31.9967 C   0  0  0  0  0  0  0  0  0  0  0  0
   35.7115   24.4548   30.8519 C   0  0  0  0  0  0  0  0  0  0  0  0
   34.5552   23.8598   30.5076 F   0  0  0  0  0  0  0  0  0  0  0  0
   38.7781   24.8939   29.7367 H   0  0  0  0  0  0  0  0  0  0  0  0
   40.3286   27.1038   35.5150 C   0  0  0  0  0  0  0  0  0  0  0  0
   40.5514   26.2285   36.6231 O   0  0  0  0  0  0  0  0  0  0  0  0
   40.0800   26.5653   37.4011 H   0  0  0  0  0  0  0  0  0  0  0  0
 13 14  2  0
 14 15  1  0
 15 16  1  0
 16 17  2  0
 16 18  1  0
  1 18  1  0
  1  2  1  0
  2  3  1  0
  3 23  1  0
 23 24  1  0
  3  4  1  0
  4  5  1  0
  4  6  1  0
  6  7  1  0
  6  8  1  0
  8  9  1  0
 18 19  1  0
 19 20  2  0
 20 21  1  0
 20 14  1  0
  8  1  1  0
 15 22  1  0
 24 25  1  0
  5 10  1  0
  7 11  1  0
  9 12  1  0
M  END
> <minimizedAffinity>
-8.98640

> <CNNscore>
0.2573824227

> <CNNaffinity>
4.3298554420

> <CNN_VS>
1.1144286394

> <CNNaffinity_variance>
0.3106688559

$$$$



 25 26  0  0  0  0  0  0  0  0999 V2000
   37.4563   26.4539   33.7551 C   0  0  0  0  0  0  0  0  0  0  0  0
   38.7636   26.6127   34.3140 O   0  0  0  0  0  0  0  0  0  0  0  0
   38.7819   27.4851   35.4584 C   0  0  0  0  0  0  0  0  0  0  0  0
   37.9543   26.8579   36.5845 C   0  0  0  0  0  0  0  0  0  0  0  0
   37.9211   27.6975   37.7394 O   0  0  0  0  0  0  0  0  0  0  0  0
   36.5252   26.6309   36.0919 C   0  0  0  0  0  0  0  0  0  0  0  0
   35.7828   25.9525   37.1191 O   0  0  0  0  0  0  0  0  0  0  0  0
   36.4907   25.8200   34.7929 C   0  0  0  0  0  0  0  0  0  0  0  0
   35.1124   25.7519   34.3886 O   0  0  0  0  0  0  0  0  0  0  0  0
   37.5090   28.5454   37.5111 H   0  0  0  0  0  0  0  0  0  0  0  0
   36.1932   25.0925   37.3003 H   0  0  0  0  0  0  0  0  0  0  0  0
   34.7635   26.6501   34.2768 H   0  0  0  0  0  0  0  0  0  0  0  0
   37.6759   23.3641   29.2186 O   0  0  0  0  0  0  0  0  0  0  0  0
   37.6592   24.0690   30.2205 C   0  0  0  0  0  0  0  0  0  0  0  0
   36.5228   24.7058   30.6483 N   0  0  0  0  0  0  0  0  0  0  0  0
   36.3959   25.4467   31.7935 C   0  0  0  0  0  0  0  0  0  0  0  0
   35.3001   25.8803   32.1478 O   0  0  0  0  0  0  0  0  0  0  0  0
   37.5566   25.6406   32.5318 N   0  0  0  0  0  0  0  0  0  0  0  0
   38.7508   25.0427   32.1605 C   0  0  0  0  0  0  0  0  0  0  0  0
   38.8468   24.2881   31.0663 C   0  0  0  0  0  0  0  0  0  0  0  0
   39.9970   23.6976   30.6947 F   0  0  0  0  0  0  0  0  0  0  0  0
   35.7236   24.6228   30.0794 H   0  0  0  0  0  0  0  0  0  0  0  0
   40.2388   27.6963   35.8896 C   0  0  0  0  0  0  0  0  0  0  0  0
   40.3202   28.8155   36.7752 O   0  0  0  0  0  0  0  0  0  0  0  0
   40.0013   29.6111   36.3211 H   0  0  0  0  0  0  0  0  0  0  0  0
 13 14  2  0
 14 15  1  0
 15 16  1  0
 16 17  2  0
 16 18  1  0
  1 18  1  0
  1  2  1  0
  2  3  1  0
  3 23  1  0
 23 24  1  0
  3  4  1  0
  4  5  1  0
  4  6  1  0
  6  7  1  0
  6  8  1  0
  8  9  1  0
 18 19  1  0
 19 20  2  0
 20 21  1  0
 20 14  1  0
  8  1  1  0
 15 22  1  0
 24 25  1  0
  5 10  1  0
  7 11  1  0
  9 12  1  0
M  END
> <minimizedAffinity>
-8.61247

> <CNNscore>
0.2084776014

> <CNNaffinity>
3.7589759827

> <CNN_VS>
0.7836623192

> <CNNaffinity_variance>
0.8105440736

$$$$



 25 26  0  0  0  0  0  0  0  0999 V2000
   36.8412   26.3052   33.3898 C   0  0  0  0  0  0  0  0  0  0  0  0
   38.2439   26.0838   33.5636 O   0  0  0  0  0  0  0  0  0  0  0  0
   38.8221   26.9226   34.5801 C   0  0  0  0  0  0  0  0  0  0  0  0
   38.2047   26.5699   35.9369 C   0  0  0  0  0  0  0  0  0  0  0  0
   38.7295   27.3922   36.9801 O   0  0  0  0  0  0  0  0  0  0  0  0
   36.6899   26.7616   35.8652 C   0  0  0  0  0  0  0  0  0  0  0  0
   36.1090   26.3346   37.1089 O   0  0  0  0  0  0  0  0  0  0  0  0
   36.0703   25.9853   34.6993 C   0  0  0  0  0  0  0  0  0  0  0  0
   34.6708   26.3152   34.6848 O   0  0  0  0  0  0  0  0  0  0  0  0
   38.5198   28.3212   36.7960 H   0  0  0  0  0  0  0  0  0  0  0  0
   36.3006   25.3941   37.2492 H   0  0  0  0  0  0  0  0  0  0  0  0
   34.5657   27.2749   34.5913 H   0  0  0  0  0  0  0  0  0  0  0  0
   34.9972   23.1532   29.2862 O   0  0  0  0  0  0  0  0  0  0  0  0
   35.4193   23.8815   30.1764 C   0  0  0  0  0  0  0  0  0  0  0  0
   34.7158   24.1089   31.3310 N   0  0  0  0  0  0  0  0  0  0  0  0
   35.1443   24.8431   32.4053 C   0  0  0  0  0  0  0  0  0  0  0  0
   34.4843   24.8896   33.4429 O   0  0  0  0  0  0  0  0  0  0  0  0
   36.3661   25.4881   32.2608 N   0  0  0  0  0  0  0  0  0  0  0  0
   37.1342   25.3216   31.1190 C   0  0  0  0  0  0  0  0  0  0  0  0
   36.7220   24.5678   30.1003 C   0  0  0  0  0  0  0  0  0  0  0  0
   37.4573   24.3927   28.9874 F   0  0  0  0  0  0  0  0  0  0  0  0
   33.8191   23.7072   31.3939 H   0  0  0  0  0  0  0  0  0  0  0  0
   40.3409   26.7072   34.5867 C   0  0  0  0  0  0  0  0  0  0  0  0
   40.6681   25.5690   33.7860 O   0  0  0  0  0  0  0  0  0  0  0  0
   40.2307   24.7825   34.1480 H   0  0  0  0  0  0  0  0  0  0  0  0
 13 14  2  0
 14 15  1  0
 15 16  1  0
 16 17  2  0
 16 18  1  0
  1 18  1  0
  1  2  1  0
  2  3  1  0
  3 23  1  0
 23 24  1  0
  3  4  1  0
  4  5  1  0
  4  6  1  0
  6  7  1  0
  6  8  1  0
  8  9  1  0
 18 19  1  0
 19 20  2  0
 20 21  1  0
 20 14  1  0
  8  1  1  0
 15 22  1  0
 24 25  1  0
  5 10  1  0
  7 11  1  0
  9 12  1  0
M  END
> <minimizedAffinity>
-8.67990

> <CNNscore>
0.2044607103

> <CNNaffinity>
3.9330031872

> <CNN_VS>
0.8041446209

> <CNNaffinity_variance>
0.4664421976

$$$$



 25 26  0  0  0  0  0  0  0  0999 V2000
   35.3478   23.2252   28.0648 C   0  0  0  0  0  0  0  0  0  0  0  0
   35.4514   24.2151   27.0372 O   0  0  0  0  0  0  0  0  0  0  0  0
   35.2309   23.6804   25.7194 C   0  0  0  0  0  0  0  0  0  0  0  0
   33.7912   23.1673   25.6173 C   0  0  0  0  0  0  0  0  0  0  0  0
   33.5266   22.6035   24.3319 O   0  0  0  0  0  0  0  0  0  0  0  0
   33.5607   22.0999   26.6868 C   0  0  0  0  0  0  0  0  0  0  0  0
   32.1816   21.6956   26.6489 O   0  0  0  0  0  0  0  0  0  0  0  0
   33.9241   22.6055   28.0862 C   0  0  0  0  0  0  0  0  0  0  0  0
   33.7512   21.4937   28.9816 O   0  0  0  0  0  0  0  0  0  0  0  0
   34.1173   21.8489   24.1820 H   0  0  0  0  0  0  0  0  0  0  0  0
   31.6153   22.4596   26.8400 H   0  0  0  0  0  0  0  0  0  0  0  0
   34.3124   20.7567   28.6941 H   0  0  0  0  0  0  0  0  0  0  0  0
   36.5486   25.6468   32.8469 O   0  0  0  0  0  0  0  0  0  0  0  0
   36.2995   25.0766   31.7915 C   0  0  0  0  0  0  0  0  0  0  0  0
   35.0553   25.1120   31.2167 N   0  0  0  0  0  0  0  0  0  0  0  0
   34.7102   24.5704   30.0066 C   0  0  0  0  0  0  0  0  0  0  0  0
   33.5935   24.7586   29.5252 O   0  0  0  0  0  0  0  0  0  0  0  0
   35.6970   23.8404   29.3561 N   0  0  0  0  0  0  0  0  0  0  0  0
   36.9781   23.7440   29.8766 C   0  0  0  0  0  0  0  0  0  0  0  0
   37.3094   24.3145   31.0345 C   0  0  0  0  0  0  0  0  0  0  0  0
   38.5490   24.2338   31.5509 F   0  0  0  0  0  0  0  0  0  0  0  0
   34.3437   25.5692   31.7204 H   0  0  0  0  0  0  0  0  0  0  0  0
   35.5022   24.7858   24.6910 C   0  0  0  0  0  0  0  0  0  0  0  0
   36.7476   24.5365   24.0350 O   0  0  0  0  0  0  0  0  0  0  0  0
   37.4621   24.5259   24.6909 H   0  0  0  0  0  0  0  0  0  0  0  0
 13 14  2  0
 14 15  1  0
 15 16  1  0
 16 17  2  0
 16 18  1  0
  1 18  1  0
  1  2  1  0
  2  3  1  0
  3 23  1  0
 23 24  1  0
  3  4  1  0
  4  5  1  0
  4  6  1  0
  6  7  1  0
  6  8  1  0
  8  9  1  0
 18 19  1  0
 19 20  2  0
 20 21  1  0
 20 14  1  0
  8  1  1  0
 15 22  1  0
 24 25  1  0
  5 10  1  0
  7 11  1  0
  9 12  1  0
M  END
> <minimizedAffinity>
-7.81681

> <CNNscore>
0.1884015948

> <CNNaffinity>
3.3937642574

> <CNN_VS>
0.6393905878

> <CNNaffinity_variance>
1.3205103874

$$$$



 25 26  0  0  0  0  0  0  0  0999 V2000
   37.4511   26.4513   34.0724 C   0  0  0  0  0  0  0  0  0  0  0  0
   38.7183   26.4392   34.7363 O   0  0  0  0  0  0  0  0  0  0  0  0
   38.7790   27.3545   35.8452 C   0  0  0  0  0  0  0  0  0  0  0  0
   37.7772   26.9154   36.9176 C   0  0  0  0  0  0  0  0  0  0  0  0
   37.7813   27.8065   38.0337 O   0  0  0  0  0  0  0  0  0  0  0  0
   36.3743   26.8818   36.3116 C   0  0  0  0  0  0  0  0  0  0  0  0
   35.4564   26.3745   37.2949 O   0  0  0  0  0  0  0  0  0  0  0  0
   36.3194   26.0220   35.0452 C   0  0  0  0  0  0  0  0  0  0  0  0
   34.9840   26.1421   34.5257 O   0  0  0  0  0  0  0  0  0  0  0  0
   37.5243   28.6944   37.7395 H   0  0  0  0  0  0  0  0  0  0  0  0
   35.7136   25.4725   37.5424 H   0  0  0  0  0  0  0  0  0  0  0  0
   34.7876   27.0758   34.3512 H   0  0  0  0  0  0  0  0  0  0  0  0
   37.8450   23.2634   29.6163 O   0  0  0  0  0  0  0  0  0  0  0  0
   37.7324   23.9505   30.6244 C   0  0  0  0  0  0  0  0  0  0  0  0
   38.8159   24.4987   31.2610 N   0  0  0  0  0  0  0  0  0  0  0  0
   38.7763   25.3382   32.3428 C   0  0  0  0  0  0  0  0  0  0  0  0
   39.8012   25.8701   32.7682 O   0  0  0  0  0  0  0  0  0  0  0  0
   37.5225   25.5726   32.8931 N   0  0  0  0  0  0  0  0  0  0  0  0
   36.3770   25.0447   32.3181 C   0  0  0  0  0  0  0  0  0  0  0  0
   36.4295   24.2651   31.2387 C   0  0  0  0  0  0  0  0  0  0  0  0
   35.3270   23.7486   30.6663 F   0  0  0  0  0  0  0  0  0  0  0  0
   39.7053   24.2675   30.9077 H   0  0  0  0  0  0  0  0  0  0  0  0
   40.2118   27.3653   36.3930 C   0  0  0  0  0  0  0  0  0  0  0  0
   40.5049   28.6504   36.9463 O   0  0  0  0  0  0  0  0  0  0  0  0
   40.4200   29.3266   36.2560 H   0  0  0  0  0  0  0  0  0  0  0  0
 13 14  2  0
 14 15  1  0
 15 16  1  0
 16 17  2  0
 16 18  1  0
  1 18  1  0
  1  2  1  0
  2  3  1  0
  3 23  1  0
 23 24  1  0
  3  4  1  0
  4  5  1  0
  4  6  1  0
  6  7  1  0
  6  8  1  0
  8  9  1  0
 18 19  1  0
 19 20  2  0
 20 21  1  0
 20 14  1  0
  8  1  1  0
 15 22  1  0
 24 25  1  0
  5 10  1  0
  7 11  1  0
  9 12  1  0
M  END
> <minimizedAffinity>
-8.21014

> <CNNscore>
0.1793370545

> <CNNaffinity>
4.2721138000

> <CNN_VS>
0.7661483288

> <CNNaffinity_variance>
0.1666789502

$$$$
