


 19 19  0  0  0  0  0  0  0  0999 V2000
   -0.5683   10.4524   10.2735 C   0  0  0  0  0  0  0  0  0  0  0  0
    0.6027   11.2507   10.6027 N   0  0  0  0  0  0  0  0  0  0  0  0
    1.2059   12.0842    9.6800 C   0  0  0  0  0  0  0  0  0  0  0  0
    1.8029   13.1874   10.0314 N   0  0  0  0  0  0  0  0  0  0  0  0
    1.6940   13.4010   11.4166 O   0  0  0  0  0  0  0  0  0  0  0  0
    1.2157   11.6586    8.1963 C   0  0  0  0  0  0  0  0  0  0  0  0
    1.4372   12.7123    7.2654 O   0  0  0  0  0  0  0  0  0  0  0  0
   -0.1200   10.9904    7.8592 C   0  0  0  0  0  0  0  0  0  0  0  0
   -0.0486   10.4445    6.5262 O   0  0  0  0  0  0  0  0  0  0  0  0
   -0.4644    9.8730    8.8479 C   0  0  0  0  0  0  0  0  0  0  0  0
   -1.7037    9.2869    8.4123 O   0  0  0  0  0  0  0  0  0  0  0  0
    0.9772   11.1953   11.5115 H   0  0  0  0  0  0  0  0  0  0  0  0
    2.0804   14.1611   11.8053 H   0  0  0  0  0  0  0  0  0  0  0  0
    0.7063   13.3480    7.3168 H   0  0  0  0  0  0  0  0  0  0  0  0
    0.6530    9.7757    6.4878 H   0  0  0  0  0  0  0  0  0  0  0  0
   -2.3931    9.9688    8.3883 H   0  0  0  0  0  0  0  0  0  0  0  0
   -0.0048    9.6200   12.5031 O   0  0  0  0  0  0  0  0  0  0  0  0
   -0.7382    9.3288   11.3134 C   0  0  0  0  0  0  0  0  0  0  0  0
   -0.1263    8.9005   13.1422 H   0  0  0  0  0  0  0  0  0  0  0  0
 17 18  1  0
  1 18  1  0
  1  2  1  0
  2  3  1  0
  3  4  2  0
  4  5  1  0
  3  6  1  0
  6  7  1  0
  6  8  1  0
  8  9  1  0
  8 10  1  0
 10 11  1  0
 10  1  1  0
 17 19  1  0
  2 12  1  0
  5 13  1  0
  7 14  1  0
  9 15  1  0
 11 16  1  0
M  END
> <minimizedAffinity>
-7.82836

> <CNNscore>
0.8656034470

> <CNNaffinity>
5.4222512245

> <CNN_VS>
4.6935191154

> <CNNaffinity_variance>
0.0928166509

$$$$



 19 19  0  0  0  0  0  0  0  0999 V2000
   -1.5049    8.4030   14.2456 C   0  0  0  0  0  0  0  0  0  0  0  0
   -0.8292    7.1703   13.8708 N   0  0  0  0  0  0  0  0  0  0  0  0
   -1.3522    5.9264   14.1696 C   0  0  0  0  0  0  0  0  0  0  0  0
   -1.1561    4.8916   13.4029 N   0  0  0  0  0  0  0  0  0  0  0  0
   -0.4108    5.2418   12.2634 O   0  0  0  0  0  0  0  0  0  0  0  0
   -2.1449    5.7550   15.4829 C   0  0  0  0  0  0  0  0  0  0  0  0
   -3.0085    4.6244   15.5259 O   0  0  0  0  0  0  0  0  0  0  0  0
   -2.9840    7.0121   15.7278 C   0  0  0  0  0  0  0  0  0  0  0  0
   -3.5922    6.9236   17.0325 O   0  0  0  0  0  0  0  0  0  0  0  0
   -2.1391    8.2866   15.6466 C   0  0  0  0  0  0  0  0  0  0  0  0
   -3.0103    9.3935   15.9380 O   0  0  0  0  0  0  0  0  0  0  0  0
    0.0277    7.2239   13.3891 H   0  0  0  0  0  0  0  0  0  0  0  0
   -0.1970    4.5902   11.6249 H   0  0  0  0  0  0  0  0  0  0  0  0
   -3.6994    4.7195   14.8517 H   0  0  0  0  0  0  0  0  0  0  0  0
   -2.8994    6.8744   17.7096 H   0  0  0  0  0  0  0  0  0  0  0  0
   -3.7407    9.4068   15.2999 H   0  0  0  0  0  0  0  0  0  0  0  0
    0.6198    9.2490   13.3788 O   0  0  0  0  0  0  0  0  0  0  0  0
   -0.5099    9.5775   14.1874 C   0  0  0  0  0  0  0  0  0  0  0  0
    1.2314   10.0015   13.3567 H   0  0  0  0  0  0  0  0  0  0  0  0
 17 18  1  0
  1 18  1  0
  1  2  1  0
  2  3  1  0
  3  4  2  0
  4  5  1  0
  3  6  1  0
  6  7  1  0
  6  8  1  0
  8  9  1  0
  8 10  1  0
 10 11  1  0
 10  1  1  0
 17 19  1  0
  2 12  1  0
  5 13  1  0
  7 14  1  0
  9 15  1  0
 11 16  1  0
M  END
> <minimizedAffinity>
-5.88057

> <CNNscore>
0.2551523149

> <CNNaffinity>
2.6403448582

> <CNN_VS>
0.6736900806

> <CNNaffinity_variance>
1.0050088167

$$$$



 19 19  0  0  0  0  0  0  0  0999 V2000
   -1.0783    6.0669   14.7618 C   0  0  0  0  0  0  0  0  0  0  0  0
   -0.7771    7.2663   13.9954 N   0  0  0  0  0  0  0  0  0  0  0  0
   -1.1345    8.5270   14.4344 C   0  0  0  0  0  0  0  0  0  0  0  0
   -0.4257    9.5835   14.1541 N   0  0  0  0  0  0  0  0  0  0  0  0
    0.7215    9.2406   13.4173 O   0  0  0  0  0  0  0  0  0  0  0  0
   -2.4453    8.6862   15.2339 C   0  0  0  0  0  0  0  0  0  0  0  0
   -2.5372    9.8715   16.0166 O   0  0  0  0  0  0  0  0  0  0  0  0
   -2.6135    7.4808   16.1628 C   0  0  0  0  0  0  0  0  0  0  0  0
   -3.9136    7.5448   16.7840 O   0  0  0  0  0  0  0  0  0  0  0  0
   -2.4757    6.1555   15.4083 C   0  0  0  0  0  0  0  0  0  0  0  0
   -2.6979    5.0996   16.3596 O   0  0  0  0  0  0  0  0  0  0  0  0
   -0.3036    7.1770   13.1368 H   0  0  0  0  0  0  0  0  0  0  0  0
    1.3221    9.9075   13.1482 H   0  0  0  0  0  0  0  0  0  0  0  0
   -1.8506    9.8605   16.7017 H   0  0  0  0  0  0  0  0  0  0  0  0
   -4.6007    7.5097   16.1002 H   0  0  0  0  0  0  0  0  0  0  0  0
   -2.0511    5.1711   17.0789 H   0  0  0  0  0  0  0  0  0  0  0  0
   -2.2382    4.1879   13.7103 O   0  0  0  0  0  0  0  0  0  0  0  0
   -0.9706    4.8294   13.8508 C   0  0  0  0  0  0  0  0  0  0  0  0
   -2.1463    3.4132   13.1339 H   0  0  0  0  0  0  0  0  0  0  0  0
 17 18  1  0
  1 18  1  0
  1  2  1  0
  2  3  1  0
  3  4  2  0
  4  5  1  0
  3  6  1  0
  6  7  1  0
  6  8  1  0
  8  9  1  0
  8 10  1  0
 10 11  1  0
 10  1  1  0
 17 19  1  0
  2 12  1  0
  5 13  1  0
  7 14  1  0
  9 15  1  0
 11 16  1  0
M  END
> <minimizedAffinity>
-6.63584

> <CNNscore>
0.2395679057

> <CNNaffinity>
2.6628057957

> <CNN_VS>
0.6379228234

> <CNNaffinity_variance>
0.7576019168

$$$$



 19 19  0  0  0  0  0  0  0  0999 V2000
   -1.3655    5.9098   15.0214 C   0  0  0  0  0  0  0  0  0  0  0  0
   -1.2041    6.2077   13.6065 N   0  0  0  0  0  0  0  0  0  0  0  0
   -0.7435    7.4325   13.1621 C   0  0  0  0  0  0  0  0  0  0  0  0
   -0.0455    7.5534   12.0689 N   0  0  0  0  0  0  0  0  0  0  0  0
    0.1898    6.2991   11.4790 O   0  0  0  0  0  0  0  0  0  0  0  0
   -1.1201    8.6975   13.9625 C   0  0  0  0  0  0  0  0  0  0  0  0
   -0.2870    9.8288   13.7344 O   0  0  0  0  0  0  0  0  0  0  0  0
   -1.0896    8.3701   15.4579 C   0  0  0  0  0  0  0  0  0  0  0  0
   -1.6019    9.4984   16.1959 O   0  0  0  0  0  0  0  0  0  0  0  0
   -1.9221    7.1277   15.7868 C   0  0  0  0  0  0  0  0  0  0  0  0
   -1.8635    6.9418   17.2121 O   0  0  0  0  0  0  0  0  0  0  0  0
   -1.4301    5.5147   12.9447 H   0  0  0  0  0  0  0  0  0  0  0  0
    0.6819    6.2403   10.6838 H   0  0  0  0  0  0  0  0  0  0  0  0
    0.6154    9.6307   14.0299 H   0  0  0  0  0  0  0  0  0  0  0  0
   -2.5200    9.6672   15.9324 H   0  0  0  0  0  0  0  0  0  0  0  0
   -0.9392    6.8365   17.4867 H   0  0  0  0  0  0  0  0  0  0  0  0
   -3.3898    4.7486   14.2901 O   0  0  0  0  0  0  0  0  0  0  0  0
   -2.2846    4.6855   15.1916 C   0  0  0  0  0  0  0  0  0  0  0  0
   -3.9537    3.9693   14.4148 H   0  0  0  0  0  0  0  0  0  0  0  0
 17 18  1  0
  1 18  1  0
  1  2  1  0
  2  3  1  0
  3  4  2  0
  4  5  1  0
  3  6  1  0
  6  7  1  0
  6  8  1  0
  8  9  1  0
  8 10  1  0
 10 11  1  0
 10  1  1  0
 17 19  1  0
  2 12  1  0
  5 13  1  0
  7 14  1  0
  9 15  1  0
 11 16  1  0
M  END
> <minimizedAffinity>
-5.70557

> <CNNscore>
0.2143486887

> <CNNaffinity>
2.5865848064

> <CNN_VS>
0.5544310808

> <CNNaffinity_variance>
0.6082317829

$$$$



 19 19  0  0  0  0  0  0  0  0999 V2000
   -2.5101    7.1832   15.2984 C   0  0  0  0  0  0  0  0  0  0  0  0
   -1.5435    8.2680   15.2229 N   0  0  0  0  0  0  0  0  0  0  0  0
   -0.7407    8.4600   14.1146 C   0  0  0  0  0  0  0  0  0  0  0  0
   -0.3450    9.6447   13.7444 N   0  0  0  0  0  0  0  0  0  0  0  0
   -0.8802   10.6398   14.5809 O   0  0  0  0  0  0  0  0  0  0  0  0
   -0.2572    7.2219   13.3298 C   0  0  0  0  0  0  0  0  0  0  0  0
    0.1718    7.4790   11.9972 O   0  0  0  0  0  0  0  0  0  0  0  0
   -1.3859    6.1885   13.2819 C   0  0  0  0  0  0  0  0  0  0  0  0
   -0.8822    4.9699   12.6976 O   0  0  0  0  0  0  0  0  0  0  0  0
   -1.9455    5.8901   14.6757 C   0  0  0  0  0  0  0  0  0  0  0  0
   -2.9577    4.8798   14.5201 O   0  0  0  0  0  0  0  0  0  0  0  0
   -1.4587    8.8848   15.9856 H   0  0  0  0  0  0  0  0  0  0  0  0
   -0.6757   11.5412   14.4269 H   0  0  0  0  0  0  0  0  0  0  0  0
   -0.5771    7.8043   11.4736 H   0  0  0  0  0  0  0  0  0  0  0  0
   -0.1631    4.6209   13.2472 H   0  0  0  0  0  0  0  0  0  0  0  0
   -3.6471    5.2027   13.9190 H   0  0  0  0  0  0  0  0  0  0  0  0
   -4.1613    7.5959   17.0546 O   0  0  0  0  0  0  0  0  0  0  0  0
   -2.9189    6.9548   16.7658 C   0  0  0  0  0  0  0  0  0  0  0  0
   -4.3983    7.4389   17.9821 H   0  0  0  0  0  0  0  0  0  0  0  0
 17 18  1  0
  1 18  1  0
  1  2  1  0
  2  3  1  0
  3  4  2  0
  4  5  1  0
  3  6  1  0
  6  7  1  0
  6  8  1  0
  8  9  1  0
  8 10  1  0
 10 11  1  0
 10  1  1  0
 17 19  1  0
  2 12  1  0
  5 13  1  0
  7 14  1  0
  9 15  1  0
 11 16  1  0
M  END
> <minimizedAffinity>
-6.19134

> <CNNscore>
0.2140548229

> <CNNaffinity>
2.6628241539

> <CNN_VS>
0.5699903369

> <CNNaffinity_variance>
0.9678461552

$$$$



 19 19  0  0  0  0  0  0  0  0999 V2000
   -1.8799    7.0558   15.7119 C   0  0  0  0  0  0  0  0  0  0  0  0
   -0.5072    7.4012   15.3756 N   0  0  0  0  0  0  0  0  0  0  0  0
    0.5485    6.5468   15.6315 C   0  0  0  0  0  0  0  0  0  0  0  0
    1.6072    6.5096   14.8735 N   0  0  0  0  0  0  0  0  0  0  0  0
    1.4822    7.3944   13.7881 O   0  0  0  0  0  0  0  0  0  0  0  0
    0.4865    5.6526   16.8882 C   0  0  0  0  0  0  0  0  0  0  0  0
    1.3453    4.5178   16.8670 O   0  0  0  0  0  0  0  0  0  0  0  0
   -0.9517    5.1652   17.0842 C   0  0  0  0  0  0  0  0  0  0  0  0
   -1.0442    4.4711   18.3451 O   0  0  0  0  0  0  0  0  0  0  0  0
   -1.9536    6.3230   17.0670 C   0  0  0  0  0  0  0  0  0  0  0  0
   -3.2562    5.7615   17.3064 O   0  0  0  0  0  0  0  0  0  0  0  0
   -0.3246    8.2710   14.9522 H   0  0  0  0  0  0  0  0  0  0  0  0
    2.1749    7.4680   13.1614 H   0  0  0  0  0  0  0  0  0  0  0  0
    1.0776    3.9231   16.1489 H   0  0  0  0  0  0  0  0  0  0  0  0
   -0.8203    5.0797   19.0664 H   0  0  0  0  0  0  0  0  0  0  0  0
   -3.4561    5.1047   16.6211 H   0  0  0  0  0  0  0  0  0  0  0  0
   -3.8921    8.1570   16.5601 O   0  0  0  0  0  0  0  0  0  0  0  0
   -2.7458    8.3297   15.7270 C   0  0  0  0  0  0  0  0  0  0  0  0
   -4.4214    8.9699   16.5544 H   0  0  0  0  0  0  0  0  0  0  0  0
 17 18  1  0
  1 18  1  0
  1  2  1  0
  2  3  1  0
  3  4  2  0
  4  5  1  0
  3  6  1  0
  6  7  1  0
  6  8  1  0
  8  9  1  0
  8 10  1  0
 10 11  1  0
 10  1  1  0
 17 19  1  0
  2 12  1  0
  5 13  1  0
  7 14  1  0
  9 15  1  0
 11 16  1  0
M  END
> <minimizedAffinity>
-6.50715

> <CNNscore>
0.2106392682

> <CNNaffinity>
2.6222093105

> <CNN_VS>
0.5523402691

> <CNNaffinity_variance>
0.8105742335

$$$$



 19 19  0  0  0  0  0  0  0  0999 V2000
   -1.8590    7.0891   15.0092 C   0  0  0  0  0  0  0  0  0  0  0  0
   -0.5890    6.7703   15.6435 N   0  0  0  0  0  0  0  0  0  0  0  0
    0.1132    5.6187   15.3425 C   0  0  0  0  0  0  0  0  0  0  0  0
    1.4143    5.5709   15.3865 N   0  0  0  0  0  0  0  0  0  0  0  0
    1.9543    6.8248   15.7220 O   0  0  0  0  0  0  0  0  0  0  0  0
   -0.6793    4.3394   14.9990 C   0  0  0  0  0  0  0  0  0  0  0  0
    0.0520    3.3467   14.2879 O   0  0  0  0  0  0  0  0  0  0  0  0
   -1.9078    4.7205   14.1684 C   0  0  0  0  0  0  0  0  0  0  0  0
   -2.7348    3.5524   13.9904 O   0  0  0  0  0  0  0  0  0  0  0  0
   -2.7282    5.8265   14.8380 C   0  0  0  0  0  0  0  0  0  0  0  0
   -3.8745    6.0699   14.0036 O   0  0  0  0  0  0  0  0  0  0  0  0
   -0.2182    7.3948   16.3081 H   0  0  0  0  0  0  0  0  0  0  0  0
    2.8827    6.9324   15.7886 H   0  0  0  0  0  0  0  0  0  0  0  0
    0.3116    3.6954   13.4208 H   0  0  0  0  0  0  0  0  0  0  0  0
   -3.0313    3.2312   14.8563 H   0  0  0  0  0  0  0  0  0  0  0  0
   -3.5796    6.3297   13.1168 H   0  0  0  0  0  0  0  0  0  0  0  0
   -3.8138    7.6370   16.3730 O   0  0  0  0  0  0  0  0  0  0  0  0
   -2.5976    8.1579   15.8368 C   0  0  0  0  0  0  0  0  0  0  0  0
   -4.2608    8.3259   16.8891 H   0  0  0  0  0  0  0  0  0  0  0  0
 17 18  1  0
  1 18  1  0
  1  2  1  0
  2  3  1  0
  3  4  2  0
  4  5  1  0
  3  6  1  0
  6  7  1  0
  6  8  1  0
  8  9  1  0
  8 10  1  0
 10 11  1  0
 10  1  1  0
 17 19  1  0
  2 12  1  0
  5 13  1  0
  7 14  1  0
  9 15  1  0
 11 16  1  0
M  END
> <minimizedAffinity>
-5.44971

> <CNNscore>
0.2041273713

> <CNNaffinity>
2.6082203388

> <CNN_VS>
0.5324091911

> <CNNaffinity_variance>
0.7634739876

$$$$



 19 19  0  0  0  0  0  0  0  0999 V2000
   -1.4721    8.1387   15.4446 C   0  0  0  0  0  0  0  0  0  0  0  0
   -0.1754    7.7762   15.9958 N   0  0  0  0  0  0  0  0  0  0  0  0
    0.0280    6.5896   16.6745 C   0  0  0  0  0  0  0  0  0  0  0  0
    1.1716    5.9664   16.6500 N   0  0  0  0  0  0  0  0  0  0  0  0
    2.0937    6.6359   15.8265 O   0  0  0  0  0  0  0  0  0  0  0  0
   -1.1243    6.0219   17.5303 C   0  0  0  0  0  0  0  0  0  0  0  0
   -1.0280    4.6341   17.8317 O   0  0  0  0  0  0  0  0  0  0  0  0
   -2.4515    6.2672   16.8074 C   0  0  0  0  0  0  0  0  0  0  0  0
   -3.5373    5.8901   17.6787 O   0  0  0  0  0  0  0  0  0  0  0  0
   -2.6152    7.7334   16.3974 C   0  0  0  0  0  0  0  0  0  0  0  0
   -3.9061    7.8594   15.7753 O   0  0  0  0  0  0  0  0  0  0  0  0
    0.5812    8.3957   15.8817 H   0  0  0  0  0  0  0  0  0  0  0  0
    2.9596    6.2944   15.7186 H   0  0  0  0  0  0  0  0  0  0  0  0
   -1.0780    4.1207   17.0103 H   0  0  0  0  0  0  0  0  0  0  0  0
   -3.5133    6.4359   18.4801 H   0  0  0  0  0  0  0  0  0  0  0  0
   -3.9554    7.2658   15.0098 H   0  0  0  0  0  0  0  0  0  0  0  0
   -2.0682   10.3682   16.2541 O   0  0  0  0  0  0  0  0  0  0  0  0
   -1.5072    9.6511   15.1546 C   0  0  0  0  0  0  0  0  0  0  0  0
   -2.0801   11.3163   16.0496 H   0  0  0  0  0  0  0  0  0  0  0  0
 17 18  1  0
  1 18  1  0
  1  2  1  0
  2  3  1  0
  3  4  2  0
  4  5  1  0
  3  6  1  0
  6  7  1  0
  6  8  1  0
  8  9  1  0
  8 10  1  0
 10 11  1  0
 10  1  1  0
 17 19  1  0
  2 12  1  0
  5 13  1  0
  7 14  1  0
  9 15  1  0
 11 16  1  0
M  END
> <minimizedAffinity>
-6.82179

> <CNNscore>
0.1973460466

> <CNNaffinity>
2.6799228191

> <CNN_VS>
0.5288721919

> <CNNaffinity_variance>
1.0250321627

$$$$



 19 19  0  0  0  0  0  0  0  0999 V2000
   -0.0335    7.3681   14.9648 C   0  0  0  0  0  0  0  0  0  0  0  0
   -0.8655    8.5597   14.8946 N   0  0  0  0  0  0  0  0  0  0  0  0
   -2.0765    8.6492   15.5543 C   0  0  0  0  0  0  0  0  0  0  0  0
   -2.5328    9.7805   16.0115 N   0  0  0  0  0  0  0  0  0  0  0  0
   -1.6191   10.8236   15.7802 O   0  0  0  0  0  0  0  0  0  0  0  0
   -2.9338    7.3738   15.7001 C   0  0  0  0  0  0  0  0  0  0  0  0
   -3.9133    7.4171   16.7319 O   0  0  0  0  0  0  0  0  0  0  0  0
   -2.0121    6.1792   15.9601 C   0  0  0  0  0  0  0  0  0  0  0  0
   -2.7940    4.9677   15.9292 O   0  0  0  0  0  0  0  0  0  0  0  0
   -0.8910    6.0869   14.9212 C   0  0  0  0  0  0  0  0  0  0  0  0
   -0.1210    4.9118   15.2299 O   0  0  0  0  0  0  0  0  0  0  0  0
   -0.5559    9.3264   14.3604 H   0  0  0  0  0  0  0  0  0  0  0  0
   -1.8220   11.6947   16.0596 H   0  0  0  0  0  0  0  0  0  0  0  0
   -3.4730    7.4971   17.5925 H   0  0  0  0  0  0  0  0  0  0  0  0
   -3.1972    4.8654   15.0529 H   0  0  0  0  0  0  0  0  0  0  0  0
    0.2308    4.9832   16.1310 H   0  0  0  0  0  0  0  0  0  0  0  0
    1.3422    8.7221   13.4629 O   0  0  0  0  0  0  0  0  0  0  0  0
    0.9917    7.3838   13.8153 C   0  0  0  0  0  0  0  0  0  0  0  0
    1.9874    8.7074   12.7388 H   0  0  0  0  0  0  0  0  0  0  0  0
 17 18  1  0
  1 18  1  0
  1  2  1  0
  2  3  1  0
  3  4  2  0
  4  5  1  0
  3  6  1  0
  6  7  1  0
  6  8  1  0
  8  9  1  0
  8 10  1  0
 10 11  1  0
 10  1  1  0
 17 19  1  0
  2 12  1  0
  5 13  1  0
  7 14  1  0
  9 15  1  0
 11 16  1  0
M  END
> <minimizedAffinity>
-6.73357

> <CNNscore>
0.1952642798

> <CNNaffinity>
2.8691322803

> <CNN_VS>
0.5602390766

> <CNNaffinity_variance>
0.6486358643

$$$$
