


 19 19  0  0  0  0  0  0  0  0999 V2000
   -0.9559    6.3291   15.9922 C   0  0  0  0  0  0  0  0  0  0  0  0
   -0.4580    7.4211   15.0123 C   0  0  0  0  0  0  0  0  0  0  0  0
    0.4754    6.8514   13.9126 C   0  0  0  0  0  0  0  0  0  0  0  0
    1.1505    5.5541   14.3827 C   0  0  0  0  0  0  0  0  0  0  0  0
    1.5050    4.6659   13.4979 N   0  0  0  0  0  0  0  0  0  0  0  0
    2.0651    3.5382   14.1236 O   0  0  0  0  0  0  0  0  0  0  0  0
    1.3548    5.3839   15.7283 N   0  0  0  0  0  0  0  0  0  0  0  0
    0.2401    5.5947   16.6520 C   0  0  0  0  0  0  0  0  0  0  0  0
    2.3658    2.8167   13.6069 H   0  0  0  0  0  0  0  0  0  0  0  0
    2.2410    5.1228   16.0685 H   0  0  0  0  0  0  0  0  0  0  0  0
   -0.2118    4.2312   17.2180 C   0  0  0  0  0  0  0  0  0  0  0  0
   -0.9306    4.3813   18.4449 O   0  0  0  0  0  0  0  0  0  0  0  0
   -0.3566    4.7968   19.1072 H   0  0  0  0  0  0  0  0  0  0  0  0
   -3.1132    6.6418   17.0235 C   0  0  0  0  0  0  0  0  0  0  0  0
   -1.7141    6.8810   17.0943 O   0  0  0  0  0  0  0  0  0  0  0  0
   -1.6222    8.0140   14.3780 O   0  0  0  0  0  0  0  0  0  0  0  0
   -2.2432    7.1517   13.4310 C   0  0  0  0  0  0  0  0  0  0  0  0
    1.4275    7.8752   13.5865 O   0  0  0  0  0  0  0  0  0  0  0  0
    1.4870    8.1642   12.1960 C   0  0  0  0  0  0  0  0  0  0  0  0
 14 15  1  0
  1 15  1  0
  1  2  1  0
  2 16  1  0
 16 17  1  0
  2  3  1  0
  3 18  1  0
 18 19  1  0
  3  4  1  0
  4  5  2  0
  5  6  1  0
  4  7  1  0
  7  8  1  0
  8 11  1  0
 11 12  1  0
  8  1  1  0
  6  9  1  0
  7 10  1  0
 12 13  1  0
M  END
> <minimizedAffinity>
-4.86561

> <CNNscore>
0.3018340468

> <CNNaffinity>
3.2853622437

> <CNN_VS>
0.9916341901

> <CNNaffinity_variance>
0.6354010105

$$$$



 19 19  0  0  0  0  0  0  0  0999 V2000
    0.1131    6.9818   16.0947 C   0  0  0  0  0  0  0  0  0  0  0  0
   -0.4320    6.9242   14.6456 C   0  0  0  0  0  0  0  0  0  0  0  0
   -1.9540    7.2124   14.5717 C   0  0  0  0  0  0  0  0  0  0  0  0
   -2.6406    6.8857   15.9065 C   0  0  0  0  0  0  0  0  0  0  0  0
   -3.7240    7.5292   16.2376 N   0  0  0  0  0  0  0  0  0  0  0  0
   -4.1765    7.1203   17.5045 O   0  0  0  0  0  0  0  0  0  0  0  0
   -2.0790    5.9195   16.7016 N   0  0  0  0  0  0  0  0  0  0  0  0
   -0.6507    5.9900   17.0102 C   0  0  0  0  0  0  0  0  0  0  0  0
   -4.9499    7.5014   17.8713 H   0  0  0  0  0  0  0  0  0  0  0  0
   -2.6305    5.1871   17.0604 H   0  0  0  0  0  0  0  0  0  0  0  0
   -0.4731    6.3808   18.4932 C   0  0  0  0  0  0  0  0  0  0  0  0
    0.3985    7.5045   18.6419 O   0  0  0  0  0  0  0  0  0  0  0  0
    1.2752    7.2824   18.2913 H   0  0  0  0  0  0  0  0  0  0  0  0
    1.7401    5.2194   15.8452 C   0  0  0  0  0  0  0  0  0  0  0  0
    1.5008    6.5801   16.1785 O   0  0  0  0  0  0  0  0  0  0  0  0
    0.2730    7.9254   13.8648 O   0  0  0  0  0  0  0  0  0  0  0  0
   -0.3554    9.2023   13.8943 C   0  0  0  0  0  0  0  0  0  0  0  0
   -2.4834    6.4415   13.4824 O   0  0  0  0  0  0  0  0  0  0  0  0
   -2.0118    5.1007   13.4622 C   0  0  0  0  0  0  0  0  0  0  0  0
 14 15  1  0
  1 15  1  0
  1  2  1  0
  2 16  1  0
 16 17  1  0
  2  3  1  0
  3 18  1  0
 18 19  1  0
  3  4  1  0
  4  5  2  0
  5  6  1  0
  4  7  1  0
  7  8  1  0
  8 11  1  0
 11 12  1  0
  8  1  1  0
  6  9  1  0
  7 10  1  0
 12 13  1  0
M  END
> <minimizedAffinity>
-6.65623

> <CNNscore>
0.2997892797

> <CNNaffinity>
3.5965394974

> <CNN_VS>
1.0782040358

> <CNNaffinity_variance>
1.2792298794

$$$$



 19 19  0  0  0  0  0  0  0  0999 V2000
   -1.5336    7.8298   15.3165 C   0  0  0  0  0  0  0  0  0  0  0  0
   -0.4023    7.4464   14.3297 C   0  0  0  0  0  0  0  0  0  0  0  0
   -0.7150    6.1465   13.5438 C   0  0  0  0  0  0  0  0  0  0  0  0
   -1.7023    5.2602   14.3182 C   0  0  0  0  0  0  0  0  0  0  0  0
   -2.4858    4.4554   13.6579 N   0  0  0  0  0  0  0  0  0  0  0  0
   -3.3392    3.7633   14.5352 O   0  0  0  0  0  0  0  0  0  0  0  0
   -1.7170    5.3536   15.6865 N   0  0  0  0  0  0  0  0  0  0  0  0
   -1.8121    6.6730   16.3112 C   0  0  0  0  0  0  0  0  0  0  0  0
   -3.9594    3.1476   14.1970 H   0  0  0  0  0  0  0  0  0  0  0  0
   -1.6643    4.5423   16.2417 H   0  0  0  0  0  0  0  0  0  0  0  0
   -3.2113    6.8326   16.9439 C   0  0  0  0  0  0  0  0  0  0  0  0
   -3.8741    8.0074   16.4693 O   0  0  0  0  0  0  0  0  0  0  0  0
   -3.3542    8.7907   16.7081 H   0  0  0  0  0  0  0  0  0  0  0  0
   -1.6411   10.2153   15.6532 C   0  0  0  0  0  0  0  0  0  0  0  0
   -1.1825    8.9632   16.1449 O   0  0  0  0  0  0  0  0  0  0  0  0
   -0.2463    8.5388   13.3855 O   0  0  0  0  0  0  0  0  0  0  0  0
   -1.1770    8.4858   12.3099 C   0  0  0  0  0  0  0  0  0  0  0  0
    0.5347    5.4846   13.2965 O   0  0  0  0  0  0  0  0  0  0  0  0
    1.5070    5.7258   14.3051 C   0  0  0  0  0  0  0  0  0  0  0  0
 14 15  1  0
  1 15  1  0
  1  2  1  0
  2 16  1  0
 16 17  1  0
  2  3  1  0
  3 18  1  0
 18 19  1  0
  3  4  1  0
  4  5  2  0
  5  6  1  0
  4  7  1  0
  7  8  1  0
  8 11  1  0
 11 12  1  0
  8  1  1  0
  6  9  1  0
  7 10  1  0
 12 13  1  0
M  END
> <minimizedAffinity>
-5.71401

> <CNNscore>
0.2789768875

> <CNNaffinity>
3.5893173218

> <CNN_VS>
1.0013365746

> <CNNaffinity_variance>
1.1617921591

$$$$



 19 19  0  0  0  0  0  0  0  0999 V2000
    1.3858    8.2070    9.6284 C   0  0  0  0  0  0  0  0  0  0  0  0
    0.0824    8.8500    9.0918 C   0  0  0  0  0  0  0  0  0  0  0  0
   -0.6688    9.6641   10.1773 C   0  0  0  0  0  0  0  0  0  0  0  0
   -0.3136    9.1619   11.5849 C   0  0  0  0  0  0  0  0  0  0  0  0
   -0.3749    9.9900   12.5889 N   0  0  0  0  0  0  0  0  0  0  0  0
    0.0240    9.3568   13.7793 O   0  0  0  0  0  0  0  0  0  0  0  0
    0.0561    7.8488   11.7273 N   0  0  0  0  0  0  0  0  0  0  0  0
    1.0893    7.2986   10.8499 C   0  0  0  0  0  0  0  0  0  0  0  0
    0.0293    9.8349   14.5852 H   0  0  0  0  0  0  0  0  0  0  0  0
   -0.3689    7.2831   12.4119 H   0  0  0  0  0  0  0  0  0  0  0  0
    2.3759    7.0634   11.6703 C   0  0  0  0  0  0  0  0  0  0  0  0
    2.0821    6.6075   12.9933 O   0  0  0  0  0  0  0  0  0  0  0  0
    1.5580    7.2788   13.4577 H   0  0  0  0  0  0  0  0  0  0  0  0
    1.2980    6.1392    8.3907 C   0  0  0  0  0  0  0  0  0  0  0  0
    2.0133    7.3383    8.6559 O   0  0  0  0  0  0  0  0  0  0  0  0
    0.4413    9.7409    8.0025 O   0  0  0  0  0  0  0  0  0  0  0  0
    0.9673   10.9861    8.4484 C   0  0  0  0  0  0  0  0  0  0  0  0
   -2.0728    9.5573    9.8976 O   0  0  0  0  0  0  0  0  0  0  0  0
   -2.4240   10.0226    8.6012 C   0  0  0  0  0  0  0  0  0  0  0  0
 14 15  1  0
  1 15  1  0
  1  2  1  0
  2 16  1  0
 16 17  1  0
  2  3  1  0
  3 18  1  0
 18 19  1  0
  3  4  1  0
  4  5  2  0
  5  6  1  0
  4  7  1  0
  7  8  1  0
  8 11  1  0
 11 12  1  0
  8  1  1  0
  6  9  1  0
  7 10  1  0
 12 13  1  0
M  END
> <minimizedAffinity>
-5.72824

> <CNNscore>
0.2379943281

> <CNNaffinity>
3.0127685070

> <CNN_VS>
0.7170218229

> <CNNaffinity_variance>
1.8210115433

$$$$



 19 19  0  0  0  0  0  0  0  0999 V2000
   -1.0755    7.0952   12.6976 C   0  0  0  0  0  0  0  0  0  0  0  0
    0.3501    6.6162   12.3250 C   0  0  0  0  0  0  0  0  0  0  0  0
    0.4314    5.0780   12.1445 C   0  0  0  0  0  0  0  0  0  0  0  0
   -0.6800    4.3722   12.9359 C   0  0  0  0  0  0  0  0  0  0  0  0
   -1.1245    3.2211   12.5178 N   0  0  0  0  0  0  0  0  0  0  0  0
   -2.1615    2.7587   13.3471 O   0  0  0  0  0  0  0  0  0  0  0  0
   -1.1623    4.9896   14.0617 N   0  0  0  0  0  0  0  0  0  0  0  0
   -1.5734    6.3916   13.9868 C   0  0  0  0  0  0  0  0  0  0  0  0
   -2.5772    1.9390   13.1646 H   0  0  0  0  0  0  0  0  0  0  0  0
   -1.2310    4.4951   14.9102 H   0  0  0  0  0  0  0  0  0  0  0  0
   -3.1122    6.4726   14.0838 C   0  0  0  0  0  0  0  0  0  0  0  0
   -3.5368    6.9159   15.3752 O   0  0  0  0  0  0  0  0  0  0  0  0
   -3.2343    6.2867   16.0487 H   0  0  0  0  0  0  0  0  0  0  0  0
   -0.3791    8.8903   14.1496 C   0  0  0  0  0  0  0  0  0  0  0  0
   -1.1210    8.5100   12.9986 O   0  0  0  0  0  0  0  0  0  0  0  0
    0.7217    7.2551   11.0749 O   0  0  0  0  0  0  0  0  0  0  0  0
    1.8316    8.1366   11.2055 C   0  0  0  0  0  0  0  0  0  0  0  0
    1.7427    4.6669   12.5598 O   0  0  0  0  0  0  0  0  0  0  0  0
    2.2444    5.4165   13.6585 C   0  0  0  0  0  0  0  0  0  0  0  0
 14 15  1  0
  1 15  1  0
  1  2  1  0
  2 16  1  0
 16 17  1  0
  2  3  1  0
  3 18  1  0
 18 19  1  0
  3  4  1  0
  4  5  2  0
  5  6  1  0
  4  7  1  0
  7  8  1  0
  8 11  1  0
 11 12  1  0
  8  1  1  0
  6  9  1  0
  7 10  1  0
 12 13  1  0
M  END
> <minimizedAffinity>
-4.64710

> <CNNscore>
0.2299244851

> <CNNaffinity>
3.0409762859

> <CNN_VS>
0.6991949081

> <CNNaffinity_variance>
1.3036589622

$$$$



 19 19  0  0  0  0  0  0  0  0999 V2000
   -0.3923    7.3294   14.7171 C   0  0  0  0  0  0  0  0  0  0  0  0
   -0.2765    5.8974   15.2972 C   0  0  0  0  0  0  0  0  0  0  0  0
   -1.5594    5.4556   16.0484 C   0  0  0  0  0  0  0  0  0  0  0  0
   -2.3466    6.6735   16.5550 C   0  0  0  0  0  0  0  0  0  0  0  0
   -3.6374    6.5782   16.7041 N   0  0  0  0  0  0  0  0  0  0  0  0
   -4.1790    7.8023   17.1346 O   0  0  0  0  0  0  0  0  0  0  0  0
   -1.6502    7.8220   16.8330 N   0  0  0  0  0  0  0  0  0  0  0  0
   -0.7200    8.3520   15.8360 C   0  0  0  0  0  0  0  0  0  0  0  0
   -5.1007    7.8802   17.2835 H   0  0  0  0  0  0  0  0  0  0  0  0
   -1.7748    8.2842   17.6933 H   0  0  0  0  0  0  0  0  0  0  0  0
   -1.3115    9.6424   15.2290 C   0  0  0  0  0  0  0  0  0  0  0  0
   -1.9465   10.4503   16.2233 O   0  0  0  0  0  0  0  0  0  0  0  0
   -2.6773    9.9545   16.6245 H   0  0  0  0  0  0  0  0  0  0  0  0
    0.7855    8.0513   12.7404 C   0  0  0  0  0  0  0  0  0  0  0  0
    0.8500    7.7913   14.1362 O   0  0  0  0  0  0  0  0  0  0  0  0
   -0.0442    4.9863   14.1904 O   0  0  0  0  0  0  0  0  0  0  0  0
   -1.2170    4.7209   13.4288 C   0  0  0  0  0  0  0  0  0  0  0  0
   -1.1525    4.5860   17.1158 O   0  0  0  0  0  0  0  0  0  0  0  0
   -0.7453    5.2847   18.2849 C   0  0  0  0  0  0  0  0  0  0  0  0
 14 15  1  0
  1 15  1  0
  1  2  1  0
  2 16  1  0
 16 17  1  0
  2  3  1  0
  3 18  1  0
 18 19  1  0
  3  4  1  0
  4  5  2  0
  5  6  1  0
  4  7  1  0
  7  8  1  0
  8 11  1  0
 11 12  1  0
  8  1  1  0
  6  9  1  0
  7 10  1  0
 12 13  1  0
M  END
> <minimizedAffinity>
-6.88773

> <CNNscore>
0.2095618844

> <CNNaffinity>
3.5127251148

> <CNN_VS>
0.7361332774

> <CNNaffinity_variance>
1.4336951971

$$$$



 19 19  0  0  0  0  0  0  0  0999 V2000
    0.7695    5.9075   15.8223 C   0  0  0  0  0  0  0  0  0  0  0  0
    1.7457    6.3619   14.7083 C   0  0  0  0  0  0  0  0  0  0  0  0
    1.8473    5.3334   13.5519 C   0  0  0  0  0  0  0  0  0  0  0  0
    1.4779    3.9233   14.0366 C   0  0  0  0  0  0  0  0  0  0  0  0
    0.9811    3.0696   13.1869 N   0  0  0  0  0  0  0  0  0  0  0  0
    0.6716    1.8562   13.8263 O   0  0  0  0  0  0  0  0  0  0  0  0
    1.6897    3.6186   15.3570 N   0  0  0  0  0  0  0  0  0  0  0  0
    1.1854    4.5250   16.3887 C   0  0  0  0  0  0  0  0  0  0  0  0
    0.3051    1.1477   13.3346 H   0  0  0  0  0  0  0  0  0  0  0  0
    2.1753    2.7997   15.6076 H   0  0  0  0  0  0  0  0  0  0  0  0
   -0.0064    3.8578   17.1085 C   0  0  0  0  0  0  0  0  0  0  0  0
   -0.0684    4.2344   18.4866 O   0  0  0  0  0  0  0  0  0  0  0  0
    0.7419    3.9485   18.9366 H   0  0  0  0  0  0  0  0  0  0  0  0
   -0.4425    7.4960   17.1726 C   0  0  0  0  0  0  0  0  0  0  0  0
    0.7785    6.7999   16.9614 O   0  0  0  0  0  0  0  0  0  0  0  0
    1.2566    7.6207   14.1742 O   0  0  0  0  0  0  0  0  0  0  0  0
    0.1239    7.4662   13.3262 C   0  0  0  0  0  0  0  0  0  0  0  0
    3.1852    5.4003   13.0358 O   0  0  0  0  0  0  0  0  0  0  0  0
    3.2365    5.4783   11.6173 C   0  0  0  0  0  0  0  0  0  0  0  0
 14 15  1  0
  1 15  1  0
  1  2  1  0
  2 16  1  0
 16 17  1  0
  2  3  1  0
  3 18  1  0
 18 19  1  0
  3  4  1  0
  4  5  2  0
  5  6  1  0
  4  7  1  0
  7  8  1  0
  8 11  1  0
 11 12  1  0
  8  1  1  0
  6  9  1  0
  7 10  1  0
 12 13  1  0
M  END
> <minimizedAffinity>
-4.87265

> <CNNscore>
0.2078434825

> <CNNaffinity>
2.6821422577

> <CNN_VS>
0.5574657917

> <CNNaffinity_variance>
1.1900584698

$$$$



 19 19  0  0  0  0  0  0  0  0999 V2000
   -0.1328    6.4127   15.0419 C   0  0  0  0  0  0  0  0  0  0  0  0
   -0.0524    5.4928   16.2860 C   0  0  0  0  0  0  0  0  0  0  0  0
   -1.3877    5.4402   17.0729 C   0  0  0  0  0  0  0  0  0  0  0  0
   -2.2230    6.7050   16.8233 C   0  0  0  0  0  0  0  0  0  0  0  0
   -3.5208    6.6377   16.9166 N   0  0  0  0  0  0  0  0  0  0  0  0
   -4.1051    7.8804   16.6147 O   0  0  0  0  0  0  0  0  0  0  0  0
   -1.5605    7.8645   16.5103 N   0  0  0  0  0  0  0  0  0  0  0  0
   -0.5576    7.8486   15.4453 C   0  0  0  0  0  0  0  0  0  0  0  0
   -5.0365    7.9792   16.6419 H   0  0  0  0  0  0  0  0  0  0  0  0
   -1.7575    8.6975   16.9965 H   0  0  0  0  0  0  0  0  0  0  0  0
   -1.1090    8.6105   14.2209 C   0  0  0  0  0  0  0  0  0  0  0  0
   -0.5736    9.9338   14.1378 O   0  0  0  0  0  0  0  0  0  0  0  0
   -0.8238   10.4341   14.9303 H   0  0  0  0  0  0  0  0  0  0  0  0
    1.2134    6.0094   13.0821 C   0  0  0  0  0  0  0  0  0  0  0  0
    1.1483    6.5684   14.3872 O   0  0  0  0  0  0  0  0  0  0  0  0
    0.2754    4.1539   15.8290 O   0  0  0  0  0  0  0  0  0  0  0  0
    1.3942    3.5904   16.5049 C   0  0  0  0  0  0  0  0  0  0  0  0
   -1.0608    5.2668   18.4600 O   0  0  0  0  0  0  0  0  0  0  0  0
   -0.1538    6.2457   18.9496 C   0  0  0  0  0  0  0  0  0  0  0  0
 14 15  1  0
  1 15  1  0
  1  2  1  0
  2 16  1  0
 16 17  1  0
  2  3  1  0
  3 18  1  0
 18 19  1  0
  3  4  1  0
  4  5  2  0
  5  6  1  0
  4  7  1  0
  7  8  1  0
  8 11  1  0
 11 12  1  0
  8  1  1  0
  6  9  1  0
  7 10  1  0
 12 13  1  0
M  END
> <minimizedAffinity>
-6.31089

> <CNNscore>
0.2063529342

> <CNNaffinity>
3.4430096149

> <CNN_VS>
0.7104751468

> <CNNaffinity_variance>
0.8310790062

$$$$



 19 19  0  0  0  0  0  0  0  0999 V2000
   -0.3252    6.1556   16.1287 C   0  0  0  0  0  0  0  0  0  0  0  0
   -0.4618    7.0563   14.8754 C   0  0  0  0  0  0  0  0  0  0  0  0
   -1.3717    6.4273   13.7884 C   0  0  0  0  0  0  0  0  0  0  0  0
   -1.4119    4.8976   13.9231 C   0  0  0  0  0  0  0  0  0  0  0  0
   -2.4674    4.2517   13.5152 N   0  0  0  0  0  0  0  0  0  0  0  0
   -2.3310    2.8738   13.7594 O   0  0  0  0  0  0  0  0  0  0  0  0
   -0.3234    4.2693   14.4722 N   0  0  0  0  0  0  0  0  0  0  0  0
    0.2151    4.7540   15.7431 C   0  0  0  0  0  0  0  0  0  0  0  0
   -3.0177    2.2846   13.5161 H   0  0  0  0  0  0  0  0  0  0  0  0
    0.0907    3.5012   14.0164 H   0  0  0  0  0  0  0  0  0  0  0  0
   -0.1076    3.7293   16.8520 C   0  0  0  0  0  0  0  0  0  0  0  0
    0.9556    3.6285   17.8029 O   0  0  0  0  0  0  0  0  0  0  0  0
    1.7626    3.3300   17.3551 H   0  0  0  0  0  0  0  0  0  0  0  0
    0.0629    7.0746   18.3242 C   0  0  0  0  0  0  0  0  0  0  0  0
    0.6293    6.6785   17.0824 O   0  0  0  0  0  0  0  0  0  0  0  0
   -1.0400    8.3202   15.2967 O   0  0  0  0  0  0  0  0  0  0  0  0
   -2.4198    8.2202   15.6316 C   0  0  0  0  0  0  0  0  0  0  0  0
   -0.8686    6.8499   12.5119 O   0  0  0  0  0  0  0  0  0  0  0  0
   -1.2934    8.1560   12.1454 C   0  0  0  0  0  0  0  0  0  0  0  0
 14 15  1  0
  1 15  1  0
  1  2  1  0
  2 16  1  0
 16 17  1  0
  2  3  1  0
  3 18  1  0
 18 19  1  0
  3  4  1  0
  4  5  2  0
  5  6  1  0
  4  7  1  0
  7  8  1  0
  8 11  1  0
 11 12  1  0
  8  1  1  0
  6  9  1  0
  7 10  1  0
 12 13  1  0
M  END
> <minimizedAffinity>
-4.80428

> <CNNscore>
0.1980242729

> <CNNaffinity>
3.1095206738

> <CNN_VS>
0.6157605648

> <CNNaffinity_variance>
0.7741257548

$$$$
