


 14 15  0  0  0  0  0  0  0  0999 V2000
    3.1324   12.4114   45.7774 C   0  0  0  0  0  0  0  0  0  0  0  0
    3.4187   12.6774   44.3359 C   0  0  0  0  0  0  0  0  0  0  0  0
    2.8557   13.7133   43.6230 C   0  0  0  0  0  0  0  0  0  0  0  0
    1.9690   14.6175   44.2058 N   0  0  0  0  0  0  0  0  0  0  0  0
    3.1322   13.9533   42.3344 N   0  0  0  0  0  0  0  0  0  0  0  0
    3.9866   13.1307   41.6973 C   0  0  0  0  0  0  0  0  0  0  0  0
    4.5565   12.0746   42.2891 N   0  0  0  0  0  0  0  0  0  0  0  0
    4.2590   11.8841   43.5837 C   0  0  0  0  0  0  0  0  0  0  0  0
    5.0446   10.4953   44.2377 Cl  0  0  0  0  0  0  0  0  0  0  0  0
    1.7112   14.5147   45.1504 H   0  0  0  0  0  0  0  0  0  0  0  0
    1.6006   15.3587   43.6728 H   0  0  0  0  0  0  0  0  0  0  0  0
    4.2984   13.4011   40.2464 C   0  0  0  0  0  0  0  0  0  0  0  0
    3.3928   14.2944   39.4279 C   0  0  0  0  0  0  0  0  0  0  0  0
    4.7606   14.7741   39.8112 C   0  0  0  0  0  0  0  0  0  0  0  0
  1  2  1  0
  2  3  2  0
  3  4  1  0
  3  5  1  0
  5  6  2  0
  6 12  1  0
 12 13  1  0
 13 14  1  0
  6  7  1  0
  7  8  2  0
  8  9  1  0
  8  2  1  0
 14 12  1  0
  4 10  1  0
  4 11  1  0
M  END
> <minimizedAffinity>
-6.82602

> <CNNscore>
0.9490827918

> <CNNaffinity>
5.0334968567

> <CNN_VS>
4.7772054672

> <CNNaffinity_variance>
0.1731082648

$$$$



 14 15  0  0  0  0  0  0  0  0999 V2000
    3.2411   12.1400   45.8001 C   0  0  0  0  0  0  0  0  0  0  0  0
    3.5373   12.4345   44.3661 C   0  0  0  0  0  0  0  0  0  0  0  0
    4.3935   11.6821   43.5919 C   0  0  0  0  0  0  0  0  0  0  0  0
    5.0516   10.5598   44.0925 N   0  0  0  0  0  0  0  0  0  0  0  0
    4.6394   11.9450   42.3016 N   0  0  0  0  0  0  0  0  0  0  0  0
    4.0368   13.0085   41.7371 C   0  0  0  0  0  0  0  0  0  0  0  0
    3.2187   13.8238   42.4127 N   0  0  0  0  0  0  0  0  0  0  0  0
    2.9931   13.5109   43.6980 C   0  0  0  0  0  0  0  0  0  0  0  0
    1.9306   14.6307   44.4668 Cl  0  0  0  0  0  0  0  0  0  0  0  0
    4.9270   10.2945   45.0324 H   0  0  0  0  0  0  0  0  0  0  0  0
    5.6410   10.0325   43.5062 H   0  0  0  0  0  0  0  0  0  0  0  0
    4.3132   13.3044   40.2841 C   0  0  0  0  0  0  0  0  0  0  0  0
    3.3450   14.1455   39.4821 C   0  0  0  0  0  0  0  0  0  0  0  0
    4.6862   14.7050   39.8511 C   0  0  0  0  0  0  0  0  0  0  0  0
  1  2  1  0
  2  3  2  0
  3  4  1  0
  3  5  1  0
  5  6  2  0
  6 12  1  0
 12 13  1  0
 13 14  1  0
  6  7  1  0
  7  8  2  0
  8  9  1  0
  8  2  1  0
 14 12  1  0
  4 10  1  0
  4 11  1  0
M  END
> <minimizedAffinity>
-6.47915

> <CNNscore>
0.8671537638

> <CNNaffinity>
5.4323883057

> <CNN_VS>
4.7107157707

> <CNNaffinity_variance>
0.0324707888

$$$$



 14 15  0  0  0  0  0  0  0  0999 V2000
    5.5893   10.1305   44.9832 C   0  0  0  0  0  0  0  0  0  0  0  0
    5.0697   11.1059   43.9786 C   0  0  0  0  0  0  0  0  0  0  0  0
    3.9958   11.9387   44.2057 C   0  0  0  0  0  0  0  0  0  0  0  0
    3.3066   11.9446   45.4174 N   0  0  0  0  0  0  0  0  0  0  0  0
    3.5481   12.8221   43.3037 N   0  0  0  0  0  0  0  0  0  0  0  0
    4.1638   12.8867   42.1082 C   0  0  0  0  0  0  0  0  0  0  0  0
    5.1902   12.0953   41.7754 N   0  0  0  0  0  0  0  0  0  0  0  0
    5.6108   11.2368   42.7172 C   0  0  0  0  0  0  0  0  0  0  0  0
    6.9311   10.2683   42.1763 Cl  0  0  0  0  0  0  0  0  0  0  0  0
    3.5703   11.3263   46.1368 H   0  0  0  0  0  0  0  0  0  0  0  0
    2.5561   12.5671   45.5539 H   0  0  0  0  0  0  0  0  0  0  0  0
    3.6601   13.8817   41.0925 C   0  0  0  0  0  0  0  0  0  0  0  0
    4.6062   14.4667   40.0674 C   0  0  0  0  0  0  0  0  0  0  0  0
    3.5524   13.4918   39.6349 C   0  0  0  0  0  0  0  0  0  0  0  0
  1  2  1  0
  2  3  2  0
  3  4  1  0
  3  5  1  0
  5  6  2  0
  6 12  1  0
 12 13  1  0
 13 14  1  0
  6  7  1  0
  7  8  2  0
  8  9  1  0
  8  2  1  0
 14 12  1  0
  4 10  1  0
  4 11  1  0
M  END
> <minimizedAffinity>
-5.80617

> <CNNscore>
0.7563964128

> <CNNaffinity>
5.4503860474

> <CNN_VS>
4.1226525307

> <CNNaffinity_variance>
0.0416138507

$$$$



 14 15  0  0  0  0  0  0  0  0999 V2000
   -2.3590    7.8235   35.0627 C   0  0  0  0  0  0  0  0  0  0  0  0
   -3.6294    8.2181   34.3834 C   0  0  0  0  0  0  0  0  0  0  0  0
   -3.8940    9.4950   33.9387 C   0  0  0  0  0  0  0  0  0  0  0  0
   -2.9748   10.5335   34.0793 N   0  0  0  0  0  0  0  0  0  0  0  0
   -5.0301    9.8347   33.3155 N   0  0  0  0  0  0  0  0  0  0  0  0
   -5.9692    8.8877   33.1317 C   0  0  0  0  0  0  0  0  0  0  0  0
   -5.8252    7.6283   33.5602 N   0  0  0  0  0  0  0  0  0  0  0  0
   -4.6647    7.3337   34.1663 C   0  0  0  0  0  0  0  0  0  0  0  0
   -4.5936    5.6887   34.6785 Cl  0  0  0  0  0  0  0  0  0  0  0  0
   -2.1127   10.3707   34.5260 H   0  0  0  0  0  0  0  0  0  0  0  0
   -3.1877   11.4298   33.7319 H   0  0  0  0  0  0  0  0  0  0  0  0
   -7.2484    9.2699   32.4296 C   0  0  0  0  0  0  0  0  0  0  0  0
   -7.3093   10.5285   31.5926 C   0  0  0  0  0  0  0  0  0  0  0  0
   -7.3418    9.1879   30.9220 C   0  0  0  0  0  0  0  0  0  0  0  0
  1  2  1  0
  2  3  2  0
  3  4  1  0
  3  5  1  0
  5  6  2  0
  6 12  1  0
 12 13  1  0
 13 14  1  0
  6  7  1  0
  7  8  2  0
  8  9  1  0
  8  2  1  0
 14 12  1  0
  4 10  1  0
  4 11  1  0
M  END
> <minimizedAffinity>
-5.28735

> <CNNscore>
0.7068388462

> <CNNaffinity>
4.0228381157

> <CNN_VS>
2.8434982300

> <CNNaffinity_variance>
0.5191170573

$$$$



 14 15  0  0  0  0  0  0  0  0999 V2000
    2.4912   14.3343   44.0670 C   0  0  0  0  0  0  0  0  0  0  0  0
    3.3519   13.1676   43.7079 C   0  0  0  0  0  0  0  0  0  0  0  0
    3.9358   13.0002   42.4712 C   0  0  0  0  0  0  0  0  0  0  0  0
    3.7762   13.9299   41.4448 N   0  0  0  0  0  0  0  0  0  0  0  0
    4.7200   11.9583   42.1646 N   0  0  0  0  0  0  0  0  0  0  0  0
    4.9328   11.0170   43.1033 C   0  0  0  0  0  0  0  0  0  0  0  0
    4.3811   11.0672   44.3213 N   0  0  0  0  0  0  0  0  0  0  0  0
    3.6149   12.1369   44.5851 C   0  0  0  0  0  0  0  0  0  0  0  0
    2.9555   12.0921   46.1778 Cl  0  0  0  0  0  0  0  0  0  0  0  0
    3.2154   14.7268   41.5854 H   0  0  0  0  0  0  0  0  0  0  0  0
    4.2242   13.7896   40.5795 H   0  0  0  0  0  0  0  0  0  0  0  0
    5.8162    9.8439   42.7584 C   0  0  0  0  0  0  0  0  0  0  0  0
    6.5921    9.8325   41.4599 C   0  0  0  0  0  0  0  0  0  0  0  0
    7.3209    9.9991   42.7595 C   0  0  0  0  0  0  0  0  0  0  0  0
  1  2  1  0
  2  3  2  0
  3  4  1  0
  3  5  1  0
  5  6  2  0
  6 12  1  0
 12 13  1  0
 13 14  1  0
  6  7  1  0
  7  8  2  0
  8  9  1  0
  8  2  1  0
 14 12  1  0
  4 10  1  0
  4 11  1  0
M  END
> <minimizedAffinity>
-5.91227

> <CNNscore>
0.6976258755

> <CNNaffinity>
5.0253081322

> <CNN_VS>
3.5057849884

> <CNNaffinity_variance>
0.0803493634

$$$$



 14 15  0  0  0  0  0  0  0  0999 V2000
    5.5533   10.1407   45.0332 C   0  0  0  0  0  0  0  0  0  0  0  0
    5.0761   11.1070   43.9991 C   0  0  0  0  0  0  0  0  0  0  0  0
    5.6733   11.2660   42.7676 C   0  0  0  0  0  0  0  0  0  0  0  0
    6.7815   10.5146   42.3795 N   0  0  0  0  0  0  0  0  0  0  0  0
    5.2271   12.1238   41.8406 N   0  0  0  0  0  0  0  0  0  0  0  0
    4.1545   12.8835   42.1323 C   0  0  0  0  0  0  0  0  0  0  0  0
    3.5269   12.8323   43.3130 N   0  0  0  0  0  0  0  0  0  0  0  0
    4.0027   11.9480   44.2032 C   0  0  0  0  0  0  0  0  0  0  0  0
    3.1214   11.9735   45.6852 Cl  0  0  0  0  0  0  0  0  0  0  0  0
    7.1741    9.8595   43.0007 H   0  0  0  0  0  0  0  0  0  0  0  0
    7.1714   10.6390   41.4841 H   0  0  0  0  0  0  0  0  0  0  0  0
    3.6517   13.8492   41.0884 C   0  0  0  0  0  0  0  0  0  0  0  0
    4.6032   14.4216   40.0611 C   0  0  0  0  0  0  0  0  0  0  0  0
    3.5656   13.4250   39.6389 C   0  0  0  0  0  0  0  0  0  0  0  0
  1  2  1  0
  2  3  2  0
  3  4  1  0
  3  5  1  0
  5  6  2  0
  6 12  1  0
 12 13  1  0
 13 14  1  0
  6  7  1  0
  7  8  2  0
  8  9  1  0
  8  2  1  0
 14 12  1  0
  4 10  1  0
  4 11  1  0
M  END
> <minimizedAffinity>
-5.95288

> <CNNscore>
0.6928626895

> <CNNaffinity>
5.1485152245

> <CNN_VS>
3.5672140121

> <CNNaffinity_variance>
0.0007248846

$$$$



 14 15  0  0  0  0  0  0  0  0999 V2000
    3.5803   13.8081   40.3413 C   0  0  0  0  0  0  0  0  0  0  0  0
    4.0410   12.7725   41.3140 C   0  0  0  0  0  0  0  0  0  0  0  0
    4.6751   11.6059   40.9459 C   0  0  0  0  0  0  0  0  0  0  0  0
    4.9524   11.3023   39.6139 N   0  0  0  0  0  0  0  0  0  0  0  0
    5.0994   10.6912   41.8277 N   0  0  0  0  0  0  0  0  0  0  0  0
    4.8782   10.9111   43.1374 C   0  0  0  0  0  0  0  0  0  0  0  0
    4.2375   11.9932   43.5947 N   0  0  0  0  0  0  0  0  0  0  0  0
    3.8442   12.8868   42.6739 C   0  0  0  0  0  0  0  0  0  0  0  0
    3.0279   14.2335   43.3765 Cl  0  0  0  0  0  0  0  0  0  0  0  0
    4.6752   11.9210   38.9000 H   0  0  0  0  0  0  0  0  0  0  0  0
    5.4253   10.4692   39.3871 H   0  0  0  0  0  0  0  0  0  0  0  0
    5.3563    9.8814   44.1305 C   0  0  0  0  0  0  0  0  0  0  0  0
    5.7436    8.4961   43.6624 C   0  0  0  0  0  0  0  0  0  0  0  0
    6.8045    9.4443   44.1349 C   0  0  0  0  0  0  0  0  0  0  0  0
  1  2  1  0
  2  3  2  0
  3  4  1  0
  3  5  1  0
  5  6  2  0
  6 12  1  0
 12 13  1  0
 13 14  1  0
  6  7  1  0
  7  8  2  0
  8  9  1  0
  8  2  1  0
 14 12  1  0
  4 10  1  0
  4 11  1  0
M  END
> <minimizedAffinity>
-5.84560

> <CNNscore>
0.6780219078

> <CNNaffinity>
5.8353886604

> <CNN_VS>
3.9565212727

> <CNNaffinity_variance>
0.1506276876

$$$$



 14 15  0  0  0  0  0  0  0  0999 V2000
    6.0959    9.8474   41.1492 C   0  0  0  0  0  0  0  0  0  0  0  0
    5.2419   10.9624   41.6576 C   0  0  0  0  0  0  0  0  0  0  0  0
    4.6778   11.9238   40.8478 C   0  0  0  0  0  0  0  0  0  0  0  0
    4.8529   11.9230   39.4648 N   0  0  0  0  0  0  0  0  0  0  0  0
    3.8994   12.9102   41.3120 N   0  0  0  0  0  0  0  0  0  0  0  0
    3.6725   12.9791   42.6373 C   0  0  0  0  0  0  0  0  0  0  0  0
    4.2049   12.1174   43.5117 N   0  0  0  0  0  0  0  0  0  0  0  0
    4.9659   11.1393   42.9968 C   0  0  0  0  0  0  0  0  0  0  0  0
    5.6002   10.0951   44.2138 Cl  0  0  0  0  0  0  0  0  0  0  0  0
    5.4107   11.2321   39.0397 H   0  0  0  0  0  0  0  0  0  0  0  0
    4.4187   12.6133   38.9132 H   0  0  0  0  0  0  0  0  0  0  0  0
    2.7957   14.0895   43.1602 C   0  0  0  0  0  0  0  0  0  0  0  0
    2.5203   14.2065   44.6430 C   0  0  0  0  0  0  0  0  0  0  0  0
    3.3982   15.2175   43.9683 C   0  0  0  0  0  0  0  0  0  0  0  0
  1  2  1  0
  2  3  2  0
  3  4  1  0
  3  5  1  0
  5  6  2  0
  6 12  1  0
 12 13  1  0
 13 14  1  0
  6  7  1  0
  7  8  2  0
  8  9  1  0
  8  2  1  0
 14 12  1  0
  4 10  1  0
  4 11  1  0
M  END
> <minimizedAffinity>
-5.61622

> <CNNscore>
0.6431663036

> <CNNaffinity>
5.5074067116

> <CNN_VS>
3.5421783924

> <CNNaffinity_variance>
0.0707415268

$$$$



 14 15  0  0  0  0  0  0  0  0999 V2000
    4.4403   11.1391   43.1873 C   0  0  0  0  0  0  0  0  0  0  0  0
    3.8061   12.3620   43.7645 C   0  0  0  0  0  0  0  0  0  0  0  0
    3.4075   13.4447   43.0113 C   0  0  0  0  0  0  0  0  0  0  0  0
    3.5561   13.4778   41.6256 N   0  0  0  0  0  0  0  0  0  0  0  0
    2.8242   14.5299   43.5370 N   0  0  0  0  0  0  0  0  0  0  0  0
    2.6357   14.5754   44.8693 C   0  0  0  0  0  0  0  0  0  0  0  0
    3.0218   13.5934   45.6921 N   0  0  0  0  0  0  0  0  0  0  0  0
    3.5887   12.5218   45.1166 C   0  0  0  0  0  0  0  0  0  0  0  0
    4.0485   11.3262   46.2711 Cl  0  0  0  0  0  0  0  0  0  0  0  0
    3.9754   12.7202   41.1572 H   0  0  0  0  0  0  0  0  0  0  0  0
    3.2418   14.2589   41.1154 H   0  0  0  0  0  0  0  0  0  0  0  0
    1.9785   15.7972   45.4614 C   0  0  0  0  0  0  0  0  0  0  0  0
    2.1818   16.1377   46.9212 C   0  0  0  0  0  0  0  0  0  0  0  0
    2.8156   16.9911   45.8639 C   0  0  0  0  0  0  0  0  0  0  0  0
  1  2  1  0
  2  3  2  0
  3  4  1  0
  3  5  1  0
  5  6  2  0
  6 12  1  0
 12 13  1  0
 13 14  1  0
  6  7  1  0
  7  8  2  0
  8  9  1  0
  8  2  1  0
 14 12  1  0
  4 10  1  0
  4 11  1  0
M  END
> <minimizedAffinity>
-5.01873

> <CNNscore>
0.6334390640

> <CNNaffinity>
4.9738926888

> <CNN_VS>
3.1506578922

> <CNNaffinity_variance>
0.0906902552

$$$$
