


 23 24  0  0  0  0  0  0  0  0999 V2000
  -28.1439  -32.7744    7.8681 N   0  0  0  0  0  0  0  0  0  0  0  0
  -29.0067  -32.5802    7.4354 H   0  0  0  0  0  0  0  0  0  0  0  0
  -24.6670  -28.2081    8.2894 C   0  0  0  0  0  0  0  0  0  0  0  0
  -25.5876  -29.3900    8.2244 C   0  0  0  0  0  0  0  0  0  0  0  0
  -25.1133  -30.6769    8.4747 C   0  0  0  0  0  0  0  0  0  0  0  0
  -25.9683  -31.7797    8.3744 C   0  0  0  0  0  0  0  0  0  0  0  0
  -27.3217  -31.6391    8.0221 C   0  0  0  0  0  0  0  0  0  0  0  0
  -27.7959  -30.3344    7.7659 C   0  0  0  0  0  0  0  0  0  0  0  0
  -26.9270  -29.2288    7.8564 C   0  0  0  0  0  0  0  0  0  0  0  0
  -29.1909  -30.0213    7.3626 C   0  0  0  0  0  0  0  0  0  0  0  0
  -29.8602  -29.0948    7.7850 O   0  0  0  0  0  0  0  0  0  0  0  0
  -29.7205  -30.9058    6.4983 O   0  0  0  0  0  0  0  0  0  0  0  0
  -29.2005  -31.6161    6.1773 H   0  0  0  0  0  0  0  0  0  0  0  0
  -27.9770  -34.1322    8.2101 C   0  0  0  0  0  0  0  0  0  0  0  0
  -27.0462  -34.5108    9.1950 C   0  0  0  0  0  0  0  0  0  0  0  0
  -26.9016  -35.8412    9.5988 C   0  0  0  0  0  0  0  0  0  0  0  0
  -27.6956  -36.8298    9.0319 C   0  0  0  0  0  0  0  0  0  0  0  0
  -28.6270  -36.4862    8.0548 C   0  0  0  0  0  0  0  0  0  0  0  0
  -28.7697  -35.1501    7.6342 C   0  0  0  0  0  0  0  0  0  0  0  0
  -29.8041  -34.9127    6.5948 C   0  0  0  0  0  0  0  0  0  0  0  0
  -29.8156  -33.9842    5.8058 O   0  0  0  0  0  0  0  0  0  0  0  0
  -30.8134  -35.8018    6.6155 O   0  0  0  0  0  0  0  0  0  0  0  0
  -30.7983  -36.5135    7.2248 H   0  0  0  0  0  0  0  0  0  0  0  0
  3  4  1  0
  4  5  2  0
  5  6  1  0
  6  7  2  0
  7  1  1  0
  1 14  1  0
 14 15  2  0
 15 16  1  0
 16 17  2  0
 17 18  1  0
 18 19  2  0
 19 20  1  0
 20 21  2  0
 20 22  1  0
  7  8  1  0
  8 10  1  0
 10 11  2  0
 10 12  1  0
  8  9  2  0
  9  4  1  0
 19 14  1  0
  1  2  1  0
 22 23  1  0
 12 13  1  0
M  END
> <minimizedAffinity>
-8.96544

> <CNNscore>
0.9811179638

> <CNNaffinity>
5.3826808929

> <CNN_VS>
5.2810449600

> <CNNaffinity_variance>
0.1303349137

$$$$



 23 24  0  0  0  0  0  0  0  0999 V2000
  -27.6545  -31.3361    7.3564 N   0  0  0  0  0  0  0  0  0  0  0  0
  -28.2069  -31.1939    6.5539 H   0  0  0  0  0  0  0  0  0  0  0  0
  -27.7489  -36.7068    9.4213 C   0  0  0  0  0  0  0  0  0  0  0  0
  -27.6948  -35.3219    8.8486 C   0  0  0  0  0  0  0  0  0  0  0  0
  -26.8186  -34.3701    9.3683 C   0  0  0  0  0  0  0  0  0  0  0  0
  -26.8001  -33.0685    8.8556 C   0  0  0  0  0  0  0  0  0  0  0  0
  -27.6518  -32.6711    7.8104 C   0  0  0  0  0  0  0  0  0  0  0  0
  -28.5397  -33.6376    7.2905 C   0  0  0  0  0  0  0  0  0  0  0  0
  -28.5623  -34.9435    7.8194 C   0  0  0  0  0  0  0  0  0  0  0  0
  -29.5154  -33.3701    6.2028 C   0  0  0  0  0  0  0  0  0  0  0  0
  -30.1169  -32.3244    6.0310 O   0  0  0  0  0  0  0  0  0  0  0  0
  -29.7520  -34.4303    5.4092 O   0  0  0  0  0  0  0  0  0  0  0  0
  -29.2861  -35.2315    5.5466 H   0  0  0  0  0  0  0  0  0  0  0  0
  -27.0240  -30.1639    7.8224 C   0  0  0  0  0  0  0  0  0  0  0  0
  -25.6750  -30.1897    8.2213 C   0  0  0  0  0  0  0  0  0  0  0  0
  -25.0057  -29.0324    8.6295 C   0  0  0  0  0  0  0  0  0  0  0  0
  -25.6695  -27.8124    8.6392 C   0  0  0  0  0  0  0  0  0  0  0  0
  -27.0054  -27.7544    8.2487 C   0  0  0  0  0  0  0  0  0  0  0  0
  -27.6896  -28.9179    7.8481 C   0  0  0  0  0  0  0  0  0  0  0  0
  -29.1059  -28.7216    7.4454 C   0  0  0  0  0  0  0  0  0  0  0  0
  -29.6252  -29.1715    6.4390 O   0  0  0  0  0  0  0  0  0  0  0  0
  -29.8044  -27.9259    8.2751 O   0  0  0  0  0  0  0  0  0  0  0  0
  -29.3991  -27.5833    9.0473 H   0  0  0  0  0  0  0  0  0  0  0  0
  3  4  1  0
  4  5  2  0
  5  6  1  0
  6  7  2  0
  7  1  1  0
  1 14  1  0
 14 15  2  0
 15 16  1  0
 16 17  2  0
 17 18  1  0
 18 19  2  0
 19 20  1  0
 20 21  2  0
 20 22  1  0
  7  8  1  0
  8 10  1  0
 10 11  2  0
 10 12  1  0
  8  9  2  0
  9  4  1  0
 19 14  1  0
  1  2  1  0
 22 23  1  0
 12 13  1  0
M  END
> <minimizedAffinity>
-9.03859

> <CNNscore>
0.9684689045

> <CNNaffinity>
5.2349352837

> <CNN_VS>
5.0698719025

> <CNNaffinity_variance>
0.1002445444

$$$$



 23 24  0  0  0  0  0  0  0  0999 V2000
  -28.1123  -32.9852    8.0522 N   0  0  0  0  0  0  0  0  0  0  0  0
  -29.0224  -32.8268    7.7120 H   0  0  0  0  0  0  0  0  0  0  0  0
  -27.1839  -38.4504    9.5970 C   0  0  0  0  0  0  0  0  0  0  0  0
  -27.3954  -37.0322    9.1581 C   0  0  0  0  0  0  0  0  0  0  0  0
  -26.6830  -35.9899    9.7496 C   0  0  0  0  0  0  0  0  0  0  0  0
  -26.9128  -34.6650    9.3630 C   0  0  0  0  0  0  0  0  0  0  0  0
  -27.8578  -34.3336    8.3767 C   0  0  0  0  0  0  0  0  0  0  0  0
  -28.5791  -35.3924    7.7838 C   0  0  0  0  0  0  0  0  0  0  0  0
  -28.3521  -36.7236    8.1861 C   0  0  0  0  0  0  0  0  0  0  0  0
  -29.6248  -35.2066    6.7452 C   0  0  0  0  0  0  0  0  0  0  0  0
  -29.9516  -34.1422    6.2503 O   0  0  0  0  0  0  0  0  0  0  0  0
  -30.2653  -36.3403    6.4070 O   0  0  0  0  0  0  0  0  0  0  0  0
  -30.0091  -37.1556    6.7912 H   0  0  0  0  0  0  0  0  0  0  0  0
  -27.3232  -31.8183    8.1176 C   0  0  0  0  0  0  0  0  0  0  0  0
  -25.9527  -31.8999    8.4257 C   0  0  0  0  0  0  0  0  0  0  0  0
  -25.1321  -30.7683    8.4379 C   0  0  0  0  0  0  0  0  0  0  0  0
  -25.6625  -29.5219    8.1309 C   0  0  0  0  0  0  0  0  0  0  0  0
  -27.0157  -29.4088    7.8207 C   0  0  0  0  0  0  0  0  0  0  0  0
  -27.8510  -30.5423    7.8184 C   0  0  0  0  0  0  0  0  0  0  0  0
  -29.2708  -30.2910    7.4610 C   0  0  0  0  0  0  0  0  0  0  0  0
  -29.9943  -29.4572    7.9769 O   0  0  0  0  0  0  0  0  0  0  0  0
  -29.7531  -31.1238    6.5211 O   0  0  0  0  0  0  0  0  0  0  0  0
  -29.1913  -31.7627    6.1284 H   0  0  0  0  0  0  0  0  0  0  0  0
  3  4  1  0
  4  5  2  0
  5  6  1  0
  6  7  2  0
  7  1  1  0
  1 14  1  0
 14 15  2  0
 15 16  1  0
 16 17  2  0
 17 18  1  0
 18 19  2  0
 19 20  1  0
 20 21  2  0
 20 22  1  0
  7  8  1  0
  8 10  1  0
 10 11  2  0
 10 12  1  0
  8  9  2  0
  9  4  1  0
 19 14  1  0
  1  2  1  0
 22 23  1  0
 12 13  1  0
M  END
> <minimizedAffinity>
-8.59746

> <CNNscore>
0.9664303064

> <CNNaffinity>
5.1277904510

> <CNN_VS>
4.9556522369

> <CNNaffinity_variance>
0.1128253043

$$$$



 23 24  0  0  0  0  0  0  0  0999 V2000
  -28.4744  -33.7707    8.1565 N   0  0  0  0  0  0  0  0  0  0  0  0
  -29.4234  -33.5138    8.1032 H   0  0  0  0  0  0  0  0  0  0  0  0
  -24.7646  -29.3764    8.3688 C   0  0  0  0  0  0  0  0  0  0  0  0
  -25.7479  -30.5086    8.3564 C   0  0  0  0  0  0  0  0  0  0  0  0
  -25.3639  -31.7897    8.7500 C   0  0  0  0  0  0  0  0  0  0  0  0
  -26.2752  -32.8501    8.6993 C   0  0  0  0  0  0  0  0  0  0  0  0
  -27.5969  -32.6714    8.2557 C   0  0  0  0  0  0  0  0  0  0  0  0
  -27.9794  -31.3731    7.8546 C   0  0  0  0  0  0  0  0  0  0  0  0
  -27.0535  -30.3117    7.8962 C   0  0  0  0  0  0  0  0  0  0  0  0
  -29.3297  -31.0255    7.3422 C   0  0  0  0  0  0  0  0  0  0  0  0
  -29.9550  -30.0168    7.6185 O   0  0  0  0  0  0  0  0  0  0  0  0
  -29.8754  -31.9716    6.5568 O   0  0  0  0  0  0  0  0  0  0  0  0
  -29.3892  -32.7449    6.3481 H   0  0  0  0  0  0  0  0  0  0  0  0
  -28.2641  -35.1646    8.1182 C   0  0  0  0  0  0  0  0  0  0  0  0
  -27.3761  -35.7773    9.0214 C   0  0  0  0  0  0  0  0  0  0  0  0
  -27.1929  -37.1628    9.0484 C   0  0  0  0  0  0  0  0  0  0  0  0
  -27.9047  -37.9751    8.1751 C   0  0  0  0  0  0  0  0  0  0  0  0
  -28.7922  -37.3982    7.2697 C   0  0  0  0  0  0  0  0  0  0  0  0
  -28.9727  -36.0024    7.2283 C   0  0  0  0  0  0  0  0  0  0  0  0
  -29.9542  -35.5129    6.2265 C   0  0  0  0  0  0  0  0  0  0  0  0
  -29.7353  -34.6716    5.3726 O   0  0  0  0  0  0  0  0  0  0  0  0
  -31.1835  -36.0420    6.3624 O   0  0  0  0  0  0  0  0  0  0  0  0
  -31.3451  -36.6885    7.0211 H   0  0  0  0  0  0  0  0  0  0  0  0
  3  4  1  0
  4  5  2  0
  5  6  1  0
  6  7  2  0
  7  1  1  0
  1 14  1  0
 14 15  2  0
 15 16  1  0
 16 17  2  0
 17 18  1  0
 18 19  2  0
 19 20  1  0
 20 21  2  0
 20 22  1  0
  7  8  1  0
  8 10  1  0
 10 11  2  0
 10 12  1  0
  8  9  2  0
  9  4  1  0
 19 14  1  0
  1  2  1  0
 22 23  1  0
 12 13  1  0
M  END
> <minimizedAffinity>
-8.19914

> <CNNscore>
0.9643427730

> <CNNaffinity>
4.9177007675

> <CNN_VS>
4.7423491478

> <CNNaffinity_variance>
0.2800548077

$$$$



 23 24  0  0  0  0  0  0  0  0999 V2000
  -29.2884  -35.4598    7.9358 N   0  0  0  0  0  0  0  0  0  0  0  0
  -30.0551  -35.2433    7.3575 H   0  0  0  0  0  0  0  0  0  0  0  0
  -25.4337  -31.2282    8.5301 C   0  0  0  0  0  0  0  0  0  0  0  0
  -26.4683  -32.3063    8.4029 C   0  0  0  0  0  0  0  0  0  0  0  0
  -26.4298  -33.4309    9.2260 C   0  0  0  0  0  0  0  0  0  0  0  0
  -27.3748  -34.4517    9.0766 C   0  0  0  0  0  0  0  0  0  0  0  0
  -28.3881  -34.3877    8.1045 C   0  0  0  0  0  0  0  0  0  0  0  0
  -28.4201  -33.2487    7.2711 C   0  0  0  0  0  0  0  0  0  0  0  0
  -27.4581  -32.2296    7.4182 C   0  0  0  0  0  0  0  0  0  0  0  0
  -29.4117  -33.0414    6.1846 C   0  0  0  0  0  0  0  0  0  0  0  0
  -29.5350  -33.7404    5.1942 O   0  0  0  0  0  0  0  0  0  0  0  0
  -30.1689  -31.9403    6.3398 O   0  0  0  0  0  0  0  0  0  0  0  0
  -30.0692  -31.4071    7.1038 H   0  0  0  0  0  0  0  0  0  0  0  0
  -29.3096  -36.7803    8.4303 C   0  0  0  0  0  0  0  0  0  0  0  0
  -28.2202  -37.6428    8.2090 C   0  0  0  0  0  0  0  0  0  0  0  0
  -28.1856  -38.9361    8.7383 C   0  0  0  0  0  0  0  0  0  0  0  0
  -29.2407  -39.3977    9.5147 C   0  0  0  0  0  0  0  0  0  0  0  0
  -30.3332  -38.5669    9.7526 C   0  0  0  0  0  0  0  0  0  0  0  0
  -30.3806  -37.2674    9.2125 C   0  0  0  0  0  0  0  0  0  0  0  0
  -31.5936  -36.4783    9.5479 C   0  0  0  0  0  0  0  0  0  0  0  0
  -32.0507  -35.5649    8.8833 O   0  0  0  0  0  0  0  0  0  0  0  0
  -32.1556  -36.8133   10.7233 O   0  0  0  0  0  0  0  0  0  0  0  0
  -31.7990  -37.5167   11.2294 H   0  0  0  0  0  0  0  0  0  0  0  0
  3  4  1  0
  4  5  2  0
  5  6  1  0
  6  7  2  0
  7  1  1  0
  1 14  1  0
 14 15  2  0
 15 16  1  0
 16 17  2  0
 17 18  1  0
 18 19  2  0
 19 20  1  0
 20 21  2  0
 20 22  1  0
  7  8  1  0
  8 10  1  0
 10 11  2  0
 10 12  1  0
  8  9  2  0
  9  4  1  0
 19 14  1  0
  1  2  1  0
 22 23  1  0
 12 13  1  0
M  END
> <minimizedAffinity>
-7.88031

> <CNNscore>
0.9041247964

> <CNNaffinity>
4.5642466545

> <CNN_VS>
4.1266484261

> <CNNaffinity_variance>
0.4310388565

$$$$



 23 24  0  0  0  0  0  0  0  0999 V2000
  -29.6826  -35.6937    7.2792 N   0  0  0  0  0  0  0  0  0  0  0  0
  -29.4290  -36.1380    6.4381 H   0  0  0  0  0  0  0  0  0  0  0  0
  -25.6456  -31.9658    8.9888 C   0  0  0  0  0  0  0  0  0  0  0  0
  -26.7284  -32.9165    8.5733 C   0  0  0  0  0  0  0  0  0  0  0  0
  -26.8247  -34.1821    9.1500 C   0  0  0  0  0  0  0  0  0  0  0  0
  -27.8132  -35.0790    8.7306 C   0  0  0  0  0  0  0  0  0  0  0  0
  -28.7372  -34.7471    7.7248 C   0  0  0  0  0  0  0  0  0  0  0  0
  -28.6328  -33.4658    7.1415 C   0  0  0  0  0  0  0  0  0  0  0  0
  -27.6274  -32.5714    7.5594 C   0  0  0  0  0  0  0  0  0  0  0  0
  -29.5174  -32.9726    6.0547 C   0  0  0  0  0  0  0  0  0  0  0  0
  -30.2532  -32.0038    6.1239 O   0  0  0  0  0  0  0  0  0  0  0  0
  -29.4998  -33.7370    4.9478 O   0  0  0  0  0  0  0  0  0  0  0  0
  -28.9316  -34.4806    4.9010 H   0  0  0  0  0  0  0  0  0  0  0  0
  -30.9188  -36.1310    7.7980 C   0  0  0  0  0  0  0  0  0  0  0  0
  -31.2687  -35.8588    9.1334 C   0  0  0  0  0  0  0  0  0  0  0  0
  -32.5113  -36.2254    9.6583 C   0  0  0  0  0  0  0  0  0  0  0  0
  -33.4436  -36.8676    8.8537 C   0  0  0  0  0  0  0  0  0  0  0  0
  -33.1270  -37.1500    7.5269 C   0  0  0  0  0  0  0  0  0  0  0  0
  -31.8728  -36.7948    6.9946 C   0  0  0  0  0  0  0  0  0  0  0  0
  -31.6622  -37.1410    5.5655 C   0  0  0  0  0  0  0  0  0  0  0  0
  -31.8015  -38.2486    5.0769 O   0  0  0  0  0  0  0  0  0  0  0  0
  -31.2293  -36.1137    4.8127 O   0  0  0  0  0  0  0  0  0  0  0  0
  -31.1244  -35.2645    5.1947 H   0  0  0  0  0  0  0  0  0  0  0  0
  3  4  1  0
  4  5  2  0
  5  6  1  0
  6  7  2  0
  7  1  1  0
  1 14  1  0
 14 15  2  0
 15 16  1  0
 16 17  2  0
 17 18  1  0
 18 19  2  0
 19 20  1  0
 20 21  2  0
 20 22  1  0
  7  8  1  0
  8 10  1  0
 10 11  2  0
 10 12  1  0
  8  9  2  0
  9  4  1  0
 19 14  1  0
  1  2  1  0
 22 23  1  0
 12 13  1  0
M  END
> <minimizedAffinity>
-7.20085

> <CNNscore>
0.8890604377

> <CNNaffinity>
4.3673706055

> <CNN_VS>
3.8828563690

> <CNNaffinity_variance>
0.3060251176

$$$$



 23 24  0  0  0  0  0  0  0  0999 V2000
  -29.1123  -35.4937    8.1265 N   0  0  0  0  0  0  0  0  0  0  0  0
  -30.0625  -35.2688    8.2523 H   0  0  0  0  0  0  0  0  0  0  0  0
  -25.4154  -31.0945    8.4379 C   0  0  0  0  0  0  0  0  0  0  0  0
  -26.4087  -32.2167    8.3851 C   0  0  0  0  0  0  0  0  0  0  0  0
  -26.2890  -33.3144    9.2363 C   0  0  0  0  0  0  0  0  0  0  0  0
  -27.1962  -34.3764    9.1557 C   0  0  0  0  0  0  0  0  0  0  0  0
  -28.2511  -34.3817    8.2268 C   0  0  0  0  0  0  0  0  0  0  0  0
  -28.3654  -33.2697    7.3647 C   0  0  0  0  0  0  0  0  0  0  0  0
  -27.4412  -32.2088    7.4422 C   0  0  0  0  0  0  0  0  0  0  0  0
  -29.4094  -33.1343    6.3166 C   0  0  0  0  0  0  0  0  0  0  0  0
  -30.0575  -32.1284    6.0870 O   0  0  0  0  0  0  0  0  0  0  0  0
  -29.6506  -34.2700    5.6370 O   0  0  0  0  0  0  0  0  0  0  0  0
  -29.1487  -35.0401    5.8184 H   0  0  0  0  0  0  0  0  0  0  0  0
  -28.8842  -36.8637    7.8822 C   0  0  0  0  0  0  0  0  0  0  0  0
  -27.6610  -37.4587    8.2419 C   0  0  0  0  0  0  0  0  0  0  0  0
  -27.4282  -38.8261    8.0686 C   0  0  0  0  0  0  0  0  0  0  0  0
  -28.4218  -39.6384    7.5377 C   0  0  0  0  0  0  0  0  0  0  0  0
  -29.6441  -39.0789    7.1727 C   0  0  0  0  0  0  0  0  0  0  0  0
  -29.8815  -37.7004    7.3330 C   0  0  0  0  0  0  0  0  0  0  0  0
  -31.2273  -37.2294    6.9164 C   0  0  0  0  0  0  0  0  0  0  0  0
  -31.4855  -36.1235    6.4747 O   0  0  0  0  0  0  0  0  0  0  0  0
  -32.2077  -38.1275    7.1208 O   0  0  0  0  0  0  0  0  0  0  0  0
  -32.0023  -38.9761    7.4607 H   0  0  0  0  0  0  0  0  0  0  0  0
  3  4  1  0
  4  5  2  0
  5  6  1  0
  6  7  2  0
  7  1  1  0
  1 14  1  0
 14 15  2  0
 15 16  1  0
 16 17  2  0
 17 18  1  0
 18 19  2  0
 19 20  1  0
 20 21  2  0
 20 22  1  0
  7  8  1  0
  8 10  1  0
 10 11  2  0
 10 12  1  0
  8  9  2  0
  9  4  1  0
 19 14  1  0
  1  2  1  0
 22 23  1  0
 12 13  1  0
M  END
> <minimizedAffinity>
-7.19384

> <CNNscore>
0.8088359833

> <CNNaffinity>
4.2452578545

> <CNN_VS>
3.4337172508

> <CNNaffinity_variance>
0.6308799386

$$$$



 23 24  0  0  0  0  0  0  0  0999 V2000
  -29.0292  -35.4289    7.8402 N   0  0  0  0  0  0  0  0  0  0  0  0
  -29.8477  -35.3994    8.3865 H   0  0  0  0  0  0  0  0  0  0  0  0
  -25.3341  -31.0821    8.5944 C   0  0  0  0  0  0  0  0  0  0  0  0
  -26.3260  -32.1947    8.4302 C   0  0  0  0  0  0  0  0  0  0  0  0
  -26.1731  -33.3935    9.1254 C   0  0  0  0  0  0  0  0  0  0  0  0
  -27.0800  -34.4422    8.9385 C   0  0  0  0  0  0  0  0  0  0  0  0
  -28.1676  -34.3334    8.0548 C   0  0  0  0  0  0  0  0  0  0  0  0
  -28.3155  -33.1191    7.3504 C   0  0  0  0  0  0  0  0  0  0  0  0
  -27.3918  -32.0709    7.5336 C   0  0  0  0  0  0  0  0  0  0  0  0
  -29.3970  -32.8552    6.3667 C   0  0  0  0  0  0  0  0  0  0  0  0
  -30.3596  -32.1306    6.5485 O   0  0  0  0  0  0  0  0  0  0  0  0
  -29.2730  -33.5486    5.2206 O   0  0  0  0  0  0  0  0  0  0  0  0
  -28.5303  -34.1041    5.0871 H   0  0  0  0  0  0  0  0  0  0  0  0
  -28.9523  -36.5583    6.9993 C   0  0  0  0  0  0  0  0  0  0  0  0
  -29.6280  -36.5765    5.7653 C   0  0  0  0  0  0  0  0  0  0  0  0
  -29.5216  -37.6558    4.8834 C   0  0  0  0  0  0  0  0  0  0  0  0
  -28.7244  -38.7449    5.2110 C   0  0  0  0  0  0  0  0  0  0  0  0
  -28.0420  -38.7560    6.4253 C   0  0  0  0  0  0  0  0  0  0  0  0
  -28.1541  -37.6780    7.3240 C   0  0  0  0  0  0  0  0  0  0  0  0
  -27.3691  -37.8057    8.5787 C   0  0  0  0  0  0  0  0  0  0  0  0
  -27.8298  -37.7955    9.7067 O   0  0  0  0  0  0  0  0  0  0  0  0
  -26.0399  -37.8803    8.3861 O   0  0  0  0  0  0  0  0  0  0  0  0
  -25.6922  -37.8878    7.5161 H   0  0  0  0  0  0  0  0  0  0  0  0
  3  4  1  0
  4  5  2  0
  5  6  1  0
  6  7  2  0
  7  1  1  0
  1 14  1  0
 14 15  2  0
 15 16  1  0
 16 17  2  0
 17 18  1  0
 18 19  2  0
 19 20  1  0
 20 21  2  0
 20 22  1  0
  7  8  1  0
  8 10  1  0
 10 11  2  0
 10 12  1  0
  8  9  2  0
  9  4  1  0
 19 14  1  0
  1  2  1  0
 22 23  1  0
 12 13  1  0
M  END
> <minimizedAffinity>
-7.16578

> <CNNscore>
0.7932440042

> <CNNaffinity>
4.8240356445

> <CNN_VS>
3.8266372681

> <CNNaffinity_variance>
0.0465427302

$$$$



 23 24  0  0  0  0  0  0  0  0999 V2000
  -29.4768  -35.9920    7.7422 N   0  0  0  0  0  0  0  0  0  0  0  0
  -29.0377  -36.6985    7.2157 H   0  0  0  0  0  0  0  0  0  0  0  0
  -35.0620  -36.8167    8.8571 C   0  0  0  0  0  0  0  0  0  0  0  0
  -33.5983  -36.6473    8.5785 C   0  0  0  0  0  0  0  0  0  0  0  0
  -32.7481  -36.1059    9.5417 C   0  0  0  0  0  0  0  0  0  0  0  0
  -31.3907  -35.9142    9.2621 C   0  0  0  0  0  0  0  0  0  0  0  0
  -30.8349  -36.2542    8.0167 C   0  0  0  0  0  0  0  0  0  0  0  0
  -31.7009  -36.7983    7.0437 C   0  0  0  0  0  0  0  0  0  0  0  0
  -33.0696  -36.9775    7.3269 C   0  0  0  0  0  0  0  0  0  0  0  0
  -31.2737  -37.1877    5.6753 C   0  0  0  0  0  0  0  0  0  0  0  0
  -30.5209  -38.1059    5.4017 O   0  0  0  0  0  0  0  0  0  0  0  0
  -31.7484  -36.3842    4.7063 O   0  0  0  0  0  0  0  0  0  0  0  0
  -32.3269  -35.6798    4.9233 H   0  0  0  0  0  0  0  0  0  0  0  0
  -28.6222  -34.9197    8.0714 C   0  0  0  0  0  0  0  0  0  0  0  0
  -27.7066  -35.0369    9.1333 C   0  0  0  0  0  0  0  0  0  0  0  0
  -26.8051  -34.0150    9.4444 C   0  0  0  0  0  0  0  0  0  0  0  0
  -26.7898  -32.8484    8.6907 C   0  0  0  0  0  0  0  0  0  0  0  0
  -27.6835  -32.7029    7.6322 C   0  0  0  0  0  0  0  0  0  0  0  0
  -28.6028  -33.7229    7.3207 C   0  0  0  0  0  0  0  0  0  0  0  0
  -29.4937  -33.4508    6.1636 C   0  0  0  0  0  0  0  0  0  0  0  0
  -29.6818  -34.2015    5.2224 O   0  0  0  0  0  0  0  0  0  0  0  0
  -30.0680  -32.2346    6.1906 O   0  0  0  0  0  0  0  0  0  0  0  0
  -29.9192  -31.6622    6.9173 H   0  0  0  0  0  0  0  0  0  0  0  0
  3  4  1  0
  4  5  2  0
  5  6  1  0
  6  7  2  0
  7  1  1  0
  1 14  1  0
 14 15  2  0
 15 16  1  0
 16 17  2  0
 17 18  1  0
 18 19  2  0
 19 20  1  0
 20 21  2  0
 20 22  1  0
  7  8  1  0
  8 10  1  0
 10 11  2  0
 10 12  1  0
  8  9  2  0
  9  4  1  0
 19 14  1  0
  1  2  1  0
 22 23  1  0
 12 13  1  0
M  END
> <minimizedAffinity>
-7.05011

> <CNNscore>
0.7281677127

> <CNNaffinity>
3.8822848797

> <CNN_VS>
2.8269546032

> <CNNaffinity_variance>
0.4482296407

$$$$
