


 32 35  0  0  0  0  0  0  0  0999 V2000
   24.2478   51.4827   -1.9215 C   0  0  0  0  0  0  0  0  0  0  0  0
   25.2094   51.0204   -2.9261 N   0  0  0  0  0  0  0  0  0  0  0  0
   26.4054   50.6978   -2.5683 C   0  0  0  0  0  0  0  0  0  0  0  0
   26.9260   50.7457   -1.1635 C   0  0  0  0  0  0  0  0  0  0  0  0
   28.2121   51.2898   -0.9749 C   0  0  0  0  0  0  0  0  0  0  0  0
   28.8195   51.2588    0.2785 C   0  0  0  0  0  0  0  0  0  0  0  0
   28.1356   50.6883    1.3509 C   0  0  0  0  0  0  0  0  0  0  0  0
   26.8464   50.1739    1.1890 C   0  0  0  0  0  0  0  0  0  0  0  0
   26.2255   50.2067   -0.0667 C   0  0  0  0  0  0  0  0  0  0  0  0
   24.8813   49.7697   -0.1924 N   0  0  0  0  0  0  0  0  0  0  0  0
   24.1963   48.7790    0.4944 C   0  0  0  0  0  0  0  0  0  0  0  0
   24.7860   47.7763    1.4124 C   0  0  0  0  0  0  0  0  0  0  0  0
   22.9304   48.7910    0.1278 N   0  0  0  0  0  0  0  0  0  0  0  0
   22.7660   49.7578   -0.8222 N   0  0  0  0  0  0  0  0  0  0  0  0
   23.9321   50.3348   -1.0213 C   0  0  0  0  0  0  0  0  0  0  0  0
   27.3212   50.2311   -3.6577 C   0  0  0  0  0  0  0  0  0  0  0  0
   28.4292   49.4238   -3.3787 C   0  0  0  0  0  0  0  0  0  0  0  0
   29.2563   48.9956   -4.4204 C   0  0  0  0  0  0  0  0  0  0  0  0
   28.9775   49.3620   -5.7418 C   0  0  0  0  0  0  0  0  0  0  0  0
   30.0536   48.7944   -6.9679 Cl  0  0  0  0  0  0  0  0  0  0  0  0
   27.8601   50.1568   -6.0223 C   0  0  0  0  0  0  0  0  0  0  0  0
   27.4027   50.6963   -7.7847 Br  0  0  0  0  0  0  0  0  0  0  0  0
   27.0310   50.5866   -4.9812 C   0  0  0  0  0  0  0  0  0  0  0  0
   30.0614   51.7388    0.5841 O   0  0  0  0  0  0  0  0  0  0  0  0
   30.2480   52.2767    1.8883 C   0  0  0  0  0  0  0  0  0  0  0  0
   22.9991   51.9769   -2.6546 C   0  0  0  0  0  0  0  0  0  0  0  0
   23.1641   51.3091   -4.9677 N   0  0  0  0  0  0  0  0  0  0  0  0
   23.3092   52.3616   -4.0856 C   0  0  0  0  0  0  0  0  0  0  0  0
   23.6025   53.4986   -4.4414 O   0  0  0  0  0  0  0  0  0  0  0  0
   22.9334   50.4195   -4.6144 H   0  0  0  0  0  0  0  0  0  0  0  0
   23.7895   50.1808   -7.0543 C   0  0  0  0  0  0  0  0  0  0  0  0
   23.3402   51.4720   -6.3944 C   0  0  0  0  0  0  0  0  0  0  0  0
 31 32  1  0
 32 27  1  0
 27 28  1  0
 28 29  2  0
 28 26  1  0
  1 26  1  0
  1  2  1  0
  2  3  2  0
  3 16  1  0
 16 17  2  0
 17 18  1  0
 18 19  2  0
 19 20  1  0
 19 21  1  0
 21 22  1  0
 21 23  2  0
  3  4  1  0
  4  5  2  0
  5  6  1  0
  6 24  1  0
 24 25  1  0
  6  7  2  0
  7  8  1  0
  8  9  2  0
  9 10  1  0
 10 11  1  0
 11 12  1  0
 11 13  2  0
 13 14  1  0
 14 15  2  0
 15  1  1  0
 23 16  1  0
  9  4  1  0
 15 10  1  0
 27 30  1  0
M  END
> <minimizedAffinity>
-9.22008

> <CNNscore>
0.9521209598

> <CNNaffinity>
7.3988776207

> <CNN_VS>
7.0446262360

> <CNNaffinity_variance>
0.0385760851

$$$$



 32 35  0  0  0  0  0  0  0  0999 V2000
   25.2704   52.7149   -2.5343 C   0  0  0  0  0  0  0  0  0  0  0  0
   26.2923   52.0808   -3.3718 N   0  0  0  0  0  0  0  0  0  0  0  0
   27.2480   51.4126   -2.8218 C   0  0  0  0  0  0  0  0  0  0  0  0
   27.4171   51.2078   -1.3465 C   0  0  0  0  0  0  0  0  0  0  0  0
   28.7171   51.3573   -0.8236 C   0  0  0  0  0  0  0  0  0  0  0  0
   28.9832   51.0643    0.5121 C   0  0  0  0  0  0  0  0  0  0  0  0
   27.9440   50.6270    1.3318 C   0  0  0  0  0  0  0  0  0  0  0  0
   26.6424   50.5047    0.8382 C   0  0  0  0  0  0  0  0  0  0  0  0
   26.3645   50.8035   -0.5023 C   0  0  0  0  0  0  0  0  0  0  0  0
   25.0223   50.7679   -0.9617 N   0  0  0  0  0  0  0  0  0  0  0  0
   23.9666   49.9576   -0.5731 C   0  0  0  0  0  0  0  0  0  0  0  0
   24.0488   48.7642    0.3015 C   0  0  0  0  0  0  0  0  0  0  0  0
   22.8686   50.3485   -1.1884 N   0  0  0  0  0  0  0  0  0  0  0  0
   23.1836   51.3917   -2.0110 N   0  0  0  0  0  0  0  0  0  0  0  0
   24.4708   51.6353   -1.8840 C   0  0  0  0  0  0  0  0  0  0  0  0
   28.2459   50.7934   -3.7514 C   0  0  0  0  0  0  0  0  0  0  0  0
   28.3650   49.4044   -3.8684 C   0  0  0  0  0  0  0  0  0  0  0  0
   29.2979   48.8597   -4.7546 C   0  0  0  0  0  0  0  0  0  0  0  0
   30.1072   49.6952   -5.5324 C   0  0  0  0  0  0  0  0  0  0  0  0
   31.2374   48.9399   -6.5979 Cl  0  0  0  0  0  0  0  0  0  0  0  0
   29.9769   51.0848   -5.4264 C   0  0  0  0  0  0  0  0  0  0  0  0
   31.0283   52.2932   -6.4466 Br  0  0  0  0  0  0  0  0  0  0  0  0
   29.0440   51.6322   -4.5400 C   0  0  0  0  0  0  0  0  0  0  0  0
   30.1979   51.1558    1.1305 O   0  0  0  0  0  0  0  0  0  0  0  0
   30.6080   52.4454    1.5708 C   0  0  0  0  0  0  0  0  0  0  0  0
   24.3973   53.5905   -3.4355 C   0  0  0  0  0  0  0  0  0  0  0  0
   26.3666   54.9651   -3.6708 N   0  0  0  0  0  0  0  0  0  0  0  0
   25.2351   54.4987   -4.3102 C   0  0  0  0  0  0  0  0  0  0  0  0
   24.9748   54.7523   -5.4822 O   0  0  0  0  0  0  0  0  0  0  0  0
   26.5117   54.7290   -2.7261 H   0  0  0  0  0  0  0  0  0  0  0  0
   27.7511   56.9829   -3.4986 C   0  0  0  0  0  0  0  0  0  0  0  0
   27.3457   55.7897   -4.3449 C   0  0  0  0  0  0  0  0  0  0  0  0
 31 32  1  0
 32 27  1  0
 27 28  1  0
 28 29  2  0
 28 26  1  0
  1 26  1  0
  1  2  1  0
  2  3  2  0
  3 16  1  0
 16 17  2  0
 17 18  1  0
 18 19  2  0
 19 20  1  0
 19 21  1  0
 21 22  1  0
 21 23  2  0
  3  4  1  0
  4  5  2  0
  5  6  1  0
  6 24  1  0
 24 25  1  0
  6  7  2  0
  7  8  1  0
  8  9  2  0
  9 10  1  0
 10 11  1  0
 11 12  1  0
 11 13  2  0
 13 14  1  0
 14 15  2  0
 15  1  1  0
 23 16  1  0
  9  4  1  0
 15 10  1  0
 27 30  1  0
M  END
> <minimizedAffinity>
-7.54993

> <CNNscore>
0.8121903539

> <CNNaffinity>
6.8838810921

> <CNN_VS>
5.5910220146

> <CNNaffinity_variance>
0.0541019626

$$$$



 32 35  0  0  0  0  0  0  0  0999 V2000
   24.7904   48.5035    0.3187 C   0  0  0  0  0  0  0  0  0  0  0  0
   25.7832   49.2535    1.0929 N   0  0  0  0  0  0  0  0  0  0  0  0
   26.6451   49.9943    0.4840 C   0  0  0  0  0  0  0  0  0  0  0  0
   26.7277   50.1750   -1.0018 C   0  0  0  0  0  0  0  0  0  0  0  0
   28.0114   50.1353   -1.5818 C   0  0  0  0  0  0  0  0  0  0  0  0
   28.1883   50.4167   -2.9347 C   0  0  0  0  0  0  0  0  0  0  0  0
   27.0764   50.7317   -3.7141 C   0  0  0  0  0  0  0  0  0  0  0  0
   25.7924   50.7433   -3.1627 C   0  0  0  0  0  0  0  0  0  0  0  0
   25.6046   50.4553   -1.8044 C   0  0  0  0  0  0  0  0  0  0  0  0
   24.2870   50.3759   -1.2833 N   0  0  0  0  0  0  0  0  0  0  0  0
   23.1422   51.0720   -1.6397 C   0  0  0  0  0  0  0  0  0  0  0  0
   23.0707   52.2442   -2.5435 C   0  0  0  0  0  0  0  0  0  0  0  0
   22.1153   50.5955   -0.9649 N   0  0  0  0  0  0  0  0  0  0  0  0
   22.5652   49.6089   -0.1352 N   0  0  0  0  0  0  0  0  0  0  0  0
   23.8628   49.4849   -0.3170 C   0  0  0  0  0  0  0  0  0  0  0  0
   27.6196   50.7296    1.3517 C   0  0  0  0  0  0  0  0  0  0  0  0
   27.4168   50.8503    2.7307 C   0  0  0  0  0  0  0  0  0  0  0  0
   28.3522   51.5323    3.5131 C   0  0  0  0  0  0  0  0  0  0  0  0
   29.4951   52.0874    2.9268 C   0  0  0  0  0  0  0  0  0  0  0  0
   30.5973   52.9185    3.9651 Cl  0  0  0  0  0  0  0  0  0  0  0  0
   29.7055   51.9532    1.5496 C   0  0  0  0  0  0  0  0  0  0  0  0
   31.2297   52.6686    0.6713 Br  0  0  0  0  0  0  0  0  0  0  0  0
   28.7705   51.2710    0.7646 C   0  0  0  0  0  0  0  0  0  0  0  0
   29.3773   50.4241   -3.6073 O   0  0  0  0  0  0  0  0  0  0  0  0
   29.3273   50.6322   -5.0142 C   0  0  0  0  0  0  0  0  0  0  0  0
   24.0462   47.5735    1.2791 C   0  0  0  0  0  0  0  0  0  0  0  0
   24.2003   46.8317    3.5703 N   0  0  0  0  0  0  0  0  0  0  0  0
   24.9238   47.1529    2.4388 C   0  0  0  0  0  0  0  0  0  0  0  0
   26.1446   47.0494    2.3720 O   0  0  0  0  0  0  0  0  0  0  0  0
   23.2224   46.9442    3.5586 H   0  0  0  0  0  0  0  0  0  0  0  0
   25.3846   47.4652    5.6231 C   0  0  0  0  0  0  0  0  0  0  0  0
   24.8338   46.3351    4.7724 C   0  0  0  0  0  0  0  0  0  0  0  0
 31 32  1  0
 32 27  1  0
 27 28  1  0
 28 29  2  0
 28 26  1  0
  1 26  1  0
  1  2  1  0
  2  3  2  0
  3 16  1  0
 16 17  2  0
 17 18  1  0
 18 19  2  0
 19 20  1  0
 19 21  1  0
 21 22  1  0
 21 23  2  0
  3  4  1  0
  4  5  2  0
  5  6  1  0
  6 24  1  0
 24 25  1  0
  6  7  2  0
  7  8  1  0
  8  9  2  0
  9 10  1  0
 10 11  1  0
 11 12  1  0
 11 13  2  0
 13 14  1  0
 14 15  2  0
 15  1  1  0
 23 16  1  0
  9  4  1  0
 15 10  1  0
 27 30  1  0
M  END
> <minimizedAffinity>
-8.81698

> <CNNscore>
0.7954258323

> <CNNaffinity>
7.2108359337

> <CNN_VS>
5.7356853485

> <CNNaffinity_variance>
0.0792548135

$$$$



 32 35  0  0  0  0  0  0  0  0999 V2000
   25.9923   49.3274    0.3066 C   0  0  0  0  0  0  0  0  0  0  0  0
   27.1842   50.1481    0.5379 N   0  0  0  0  0  0  0  0  0  0  0  0
   27.8851   50.5577   -0.4638 C   0  0  0  0  0  0  0  0  0  0  0  0
   27.5807   50.2688   -1.9028 C   0  0  0  0  0  0  0  0  0  0  0  0
   28.6634   49.8976   -2.7249 C   0  0  0  0  0  0  0  0  0  0  0  0
   28.4891   49.7324   -4.0972 C   0  0  0  0  0  0  0  0  0  0  0  0
   27.2251   49.9315   -4.6502 C   0  0  0  0  0  0  0  0  0  0  0  0
   26.1334   50.2676   -3.8452 C   0  0  0  0  0  0  0  0  0  0  0  0
   26.2984   50.4295   -2.4632 C   0  0  0  0  0  0  0  0  0  0  0  0
   25.1626   50.6745   -1.6485 N   0  0  0  0  0  0  0  0  0  0  0  0
   23.9942   51.3658   -1.9298 C   0  0  0  0  0  0  0  0  0  0  0  0
   23.7356   52.2091   -3.1206 C   0  0  0  0  0  0  0  0  0  0  0  0
   23.1625   51.2462   -0.9144 N   0  0  0  0  0  0  0  0  0  0  0  0
   23.7739   50.5092    0.0589 N   0  0  0  0  0  0  0  0  0  0  0  0
   24.9715   50.1770   -0.3744 C   0  0  0  0  0  0  0  0  0  0  0  0
   29.0834   51.3950   -0.1377 C   0  0  0  0  0  0  0  0  0  0  0  0
   29.6590   51.3737    1.1372 C   0  0  0  0  0  0  0  0  0  0  0  0
   30.7843   52.1579    1.4043 C   0  0  0  0  0  0  0  0  0  0  0  0
   31.3441   52.9574    0.4015 C   0  0  0  0  0  0  0  0  0  0  0  0
   32.7306   53.8996    0.8176 Cl  0  0  0  0  0  0  0  0  0  0  0  0
   30.7771   52.9667   -0.8782 C   0  0  0  0  0  0  0  0  0  0  0  0
   31.4736   54.0156   -2.2998 Br  0  0  0  0  0  0  0  0  0  0  0  0
   29.6509   52.1826   -1.1476 C   0  0  0  0  0  0  0  0  0  0  0  0
   29.4581   49.3894   -4.9969 O   0  0  0  0  0  0  0  0  0  0  0  0
   29.0377   49.0910   -6.3233 C   0  0  0  0  0  0  0  0  0  0  0  0
   25.4897   48.8308    1.6637 C   0  0  0  0  0  0  0  0  0  0  0  0
   24.0983   47.1670    2.7217 N   0  0  0  0  0  0  0  0  0  0  0  0
   24.6225   47.5983    1.5192 C   0  0  0  0  0  0  0  0  0  0  0  0
   24.3605   47.0668    0.4447 O   0  0  0  0  0  0  0  0  0  0  0  0
   24.3552   47.6351    3.5489 H   0  0  0  0  0  0  0  0  0  0  0  0
   22.4677   46.0096    4.1427 C   0  0  0  0  0  0  0  0  0  0  0  0
   23.1838   46.0491    2.8048 C   0  0  0  0  0  0  0  0  0  0  0  0
 31 32  1  0
 32 27  1  0
 27 28  1  0
 28 29  2  0
 28 26  1  0
  1 26  1  0
  1  2  1  0
  2  3  2  0
  3 16  1  0
 16 17  2  0
 17 18  1  0
 18 19  2  0
 19 20  1  0
 19 21  1  0
 21 22  1  0
 21 23  2  0
  3  4  1  0
  4  5  2  0
  5  6  1  0
  6 24  1  0
 24 25  1  0
  6  7  2  0
  7  8  1  0
  8  9  2  0
  9 10  1  0
 10 11  1  0
 11 12  1  0
 11 13  2  0
 13 14  1  0
 14 15  2  0
 15  1  1  0
 23 16  1  0
  9  4  1  0
 15 10  1  0
 27 30  1  0
M  END
> <minimizedAffinity>
-8.47040

> <CNNscore>
0.5273970962

> <CNNaffinity>
6.7844696045

> <CNN_VS>
3.5781095028

> <CNNaffinity_variance>
0.0906213149

$$$$



 32 35  0  0  0  0  0  0  0  0999 V2000
   24.3922   49.7064   -0.8030 C   0  0  0  0  0  0  0  0  0  0  0  0
   25.5766   50.1956   -0.0920 N   0  0  0  0  0  0  0  0  0  0  0  0
   26.6725   50.4035   -0.7387 C   0  0  0  0  0  0  0  0  0  0  0  0
   26.8568   50.1905   -2.2110 C   0  0  0  0  0  0  0  0  0  0  0  0
   28.0411   49.5472   -2.6222 C   0  0  0  0  0  0  0  0  0  0  0  0
   28.3477   49.4210   -3.9753 C   0  0  0  0  0  0  0  0  0  0  0  0
   27.4629   49.9331   -4.9229 C   0  0  0  0  0  0  0  0  0  0  0  0
   26.2682   50.5447   -4.5338 C   0  0  0  0  0  0  0  0  0  0  0  0
   25.9489   50.6702   -3.1753 C   0  0  0  0  0  0  0  0  0  0  0  0
   24.6890   51.2052   -2.8008 N   0  0  0  0  0  0  0  0  0  0  0  0
   23.9094   52.1707   -3.4189 C   0  0  0  0  0  0  0  0  0  0  0  0
   24.3174   53.0423   -4.5458 C   0  0  0  0  0  0  0  0  0  0  0  0
   22.7610   52.2769   -2.7809 N   0  0  0  0  0  0  0  0  0  0  0  0
   22.7754   51.4158   -1.7214 N   0  0  0  0  0  0  0  0  0  0  0  0
   23.9300   50.7839   -1.7267 C   0  0  0  0  0  0  0  0  0  0  0  0
   27.8319   50.9080    0.0642 C   0  0  0  0  0  0  0  0  0  0  0  0
   28.9859   51.3990   -0.5559 C   0  0  0  0  0  0  0  0  0  0  0  0
   30.0443   51.8737    0.2230 C   0  0  0  0  0  0  0  0  0  0  0  0
   29.9531   51.8693    1.6193 C   0  0  0  0  0  0  0  0  0  0  0  0
   31.3087   52.4685    2.5063 Cl  0  0  0  0  0  0  0  0  0  0  0  0
   28.7923   51.3923    2.2391 C   0  0  0  0  0  0  0  0  0  0  0  0
   28.5795   51.3549    4.1258 Br  0  0  0  0  0  0  0  0  0  0  0  0
   27.7318   50.9167    1.4614 C   0  0  0  0  0  0  0  0  0  0  0  0
   29.4652   48.8334   -4.4969 O   0  0  0  0  0  0  0  0  0  0  0  0
   29.7124   49.0238   -5.8853 C   0  0  0  0  0  0  0  0  0  0  0  0
   23.3231   49.3665    0.2374 C   0  0  0  0  0  0  0  0  0  0  0  0
   22.6820   47.7272    1.8882 N   0  0  0  0  0  0  0  0  0  0  0  0
   23.5836   48.0232    0.8851 C   0  0  0  0  0  0  0  0  0  0  0  0
   24.4638   47.2479    0.5248 O   0  0  0  0  0  0  0  0  0  0  0  0
   22.0039   48.3978    2.1327 H   0  0  0  0  0  0  0  0  0  0  0  0
   23.5163   46.5462    3.8699 C   0  0  0  0  0  0  0  0  0  0  0  0
   22.7020   46.4631    2.5914 C   0  0  0  0  0  0  0  0  0  0  0  0
 31 32  1  0
 32 27  1  0
 27 28  1  0
 28 29  2  0
 28 26  1  0
  1 26  1  0
  1  2  1  0
  2  3  2  0
  3 16  1  0
 16 17  2  0
 17 18  1  0
 18 19  2  0
 19 20  1  0
 19 21  1  0
 21 22  1  0
 21 23  2  0
  3  4  1  0
  4  5  2  0
  5  6  1  0
  6 24  1  0
 24 25  1  0
  6  7  2  0
  7  8  1  0
  8  9  2  0
  9 10  1  0
 10 11  1  0
 11 12  1  0
 11 13  2  0
 13 14  1  0
 14 15  2  0
 15  1  1  0
 23 16  1  0
  9  4  1  0
 15 10  1  0
 27 30  1  0
M  END
> <minimizedAffinity>
-9.14662

> <CNNscore>
0.3518356681

> <CNNaffinity>
6.4397702217

> <CNN_VS>
2.2657408714

> <CNNaffinity_variance>
0.3157067597

$$$$



 32 35  0  0  0  0  0  0  0  0999 V2000
   23.2375   52.8067   -4.5979 C   0  0  0  0  0  0  0  0  0  0  0  0
   23.5825   52.0323   -3.4025 N   0  0  0  0  0  0  0  0  0  0  0  0
   24.6728   51.3445   -3.3766 C   0  0  0  0  0  0  0  0  0  0  0  0
   25.6662   51.2634   -4.4962 C   0  0  0  0  0  0  0  0  0  0  0  0
   26.1811   49.9886   -4.8050 C   0  0  0  0  0  0  0  0  0  0  0  0
   27.1979   49.8423   -5.7460 C   0  0  0  0  0  0  0  0  0  0  0  0
   27.6977   50.9744   -6.3876 C   0  0  0  0  0  0  0  0  0  0  0  0
   27.1761   52.2424   -6.1177 C   0  0  0  0  0  0  0  0  0  0  0  0
   26.1490   52.3979   -5.1773 C   0  0  0  0  0  0  0  0  0  0  0  0
   25.5648   53.6771   -4.9867 N   0  0  0  0  0  0  0  0  0  0  0  0
   26.1306   54.9396   -5.0771 C   0  0  0  0  0  0  0  0  0  0  0  0
   27.5741   55.2502   -5.2019 C   0  0  0  0  0  0  0  0  0  0  0  0
   25.1889   55.8500   -4.9304 N   0  0  0  0  0  0  0  0  0  0  0  0
   24.0025   55.2112   -4.7097 N   0  0  0  0  0  0  0  0  0  0  0  0
   24.2283   53.9147   -4.7325 C   0  0  0  0  0  0  0  0  0  0  0  0
   24.9503   50.5873   -2.1145 C   0  0  0  0  0  0  0  0  0  0  0  0
   26.2440   50.5012   -1.5888 C   0  0  0  0  0  0  0  0  0  0  0  0
   26.4660   49.7971   -0.4025 C   0  0  0  0  0  0  0  0  0  0  0  0
   25.4007   49.1855    0.2676 C   0  0  0  0  0  0  0  0  0  0  0  0
   25.7634   48.3307    1.7240 Cl  0  0  0  0  0  0  0  0  0  0  0  0
   24.1042   49.2850   -0.2503 C   0  0  0  0  0  0  0  0  0  0  0  0
   22.5995   48.4924    0.5949 Br  0  0  0  0  0  0  0  0  0  0  0  0
   23.8797   49.9891   -1.4376 C   0  0  0  0  0  0  0  0  0  0  0  0
   27.7864   48.6677   -6.1203 O   0  0  0  0  0  0  0  0  0  0  0  0
   29.2036   48.6625   -6.2492 C   0  0  0  0  0  0  0  0  0  0  0  0
   21.8173   53.3468   -4.4176 C   0  0  0  0  0  0  0  0  0  0  0  0
   20.0460   52.0069   -5.3614 N   0  0  0  0  0  0  0  0  0  0  0  0
   20.9438   53.0258   -5.6117 C   0  0  0  0  0  0  0  0  0  0  0  0
   20.9825   53.6391   -6.6737 O   0  0  0  0  0  0  0  0  0  0  0  0
   20.0731   51.5514   -4.4890 H   0  0  0  0  0  0  0  0  0  0  0  0
   17.6583   51.9704   -5.9232 C   0  0  0  0  0  0  0  0  0  0  0  0
   19.0668   51.5875   -6.3402 C   0  0  0  0  0  0  0  0  0  0  0  0
 31 32  1  0
 32 27  1  0
 27 28  1  0
 28 29  2  0
 28 26  1  0
  1 26  1  0
  1  2  1  0
  2  3  2  0
  3 16  1  0
 16 17  2  0
 17 18  1  0
 18 19  2  0
 19 20  1  0
 19 21  1  0
 21 22  1  0
 21 23  2  0
  3  4  1  0
  4  5  2  0
  5  6  1  0
  6 24  1  0
 24 25  1  0
  6  7  2  0
  7  8  1  0
  8  9  2  0
  9 10  1  0
 10 11  1  0
 11 12  1  0
 11 13  2  0
 13 14  1  0
 14 15  2  0
 15  1  1  0
 23 16  1  0
  9  4  1  0
 15 10  1  0
 27 30  1  0
M  END
> <minimizedAffinity>
-7.13934

> <CNNscore>
0.3310797811

> <CNNaffinity>
6.4482455254

> <CNN_VS>
2.1348836422

> <CNNaffinity_variance>
0.3979731798

$$$$



 32 35  0  0  0  0  0  0  0  0999 V2000
   24.5129   49.6957   -0.6521 C   0  0  0  0  0  0  0  0  0  0  0  0
   25.7116   50.2191    0.0089 N   0  0  0  0  0  0  0  0  0  0  0  0
   26.7794   50.4386   -0.6794 C   0  0  0  0  0  0  0  0  0  0  0  0
   26.9158   50.2066   -2.1540 C   0  0  0  0  0  0  0  0  0  0  0  0
   28.0977   49.5806   -2.5977 C   0  0  0  0  0  0  0  0  0  0  0  0
   28.3588   49.4396   -3.9589 C   0  0  0  0  0  0  0  0  0  0  0  0
   27.4308   49.9194   -4.8818 C   0  0  0  0  0  0  0  0  0  0  0  0
   26.2384   50.5132   -4.4594 C   0  0  0  0  0  0  0  0  0  0  0  0
   25.9649   50.6533   -3.0923 C   0  0  0  0  0  0  0  0  0  0  0  0
   24.7084   51.1690   -2.6811 N   0  0  0  0  0  0  0  0  0  0  0  0
   23.8880   52.1093   -3.2851 C   0  0  0  0  0  0  0  0  0  0  0  0
   24.2381   52.9713   -4.4386 C   0  0  0  0  0  0  0  0  0  0  0  0
   22.7610   52.2026   -2.6083 N   0  0  0  0  0  0  0  0  0  0  0  0
   22.8303   51.3584   -1.5374 N   0  0  0  0  0  0  0  0  0  0  0  0
   23.9966   50.7494   -1.5745 C   0  0  0  0  0  0  0  0  0  0  0  0
   27.9560   50.9782    0.0741 C   0  0  0  0  0  0  0  0  0  0  0  0
   28.1221   50.7246    1.4399 C   0  0  0  0  0  0  0  0  0  0  0  0
   29.2380   51.2328    2.1098 C   0  0  0  0  0  0  0  0  0  0  0  0
   30.1949   51.9862    1.4208 C   0  0  0  0  0  0  0  0  0  0  0  0
   31.5404   52.5812    2.3257 Cl  0  0  0  0  0  0  0  0  0  0  0  0
   30.0364   52.2267    0.0511 C   0  0  0  0  0  0  0  0  0  0  0  0
   31.2870   53.2325   -0.9641 Br  0  0  0  0  0  0  0  0  0  0  0  0
   28.9202   51.7191   -0.6214 C   0  0  0  0  0  0  0  0  0  0  0  0
   29.4689   48.8662   -4.5112 O   0  0  0  0  0  0  0  0  0  0  0  0
   29.7052   49.1062   -5.8938 C   0  0  0  0  0  0  0  0  0  0  0  0
   23.4884   49.3509    0.4307 C   0  0  0  0  0  0  0  0  0  0  0  0
   22.8223   47.6349    1.9912 N   0  0  0  0  0  0  0  0  0  0  0  0
   23.7451   47.9822    1.0245 C   0  0  0  0  0  0  0  0  0  0  0  0
   24.6405   47.2305    0.6519 O   0  0  0  0  0  0  0  0  0  0  0  0
   22.1326   48.2887    2.2485 H   0  0  0  0  0  0  0  0  0  0  0  0
   23.3139   46.4388    4.0758 C   0  0  0  0  0  0  0  0  0  0  0  0
   22.8366   46.3410    2.6381 C   0  0  0  0  0  0  0  0  0  0  0  0
 31 32  1  0
 32 27  1  0
 27 28  1  0
 28 29  2  0
 28 26  1  0
  1 26  1  0
  1  2  1  0
  2  3  2  0
  3 16  1  0
 16 17  2  0
 17 18  1  0
 18 19  2  0
 19 20  1  0
 19 21  1  0
 21 22  1  0
 21 23  2  0
  3  4  1  0
  4  5  2  0
  5  6  1  0
  6 24  1  0
 24 25  1  0
  6  7  2  0
  7  8  1  0
  8  9  2  0
  9 10  1  0
 10 11  1  0
 11 12  1  0
 11 13  2  0
 13 14  1  0
 14 15  2  0
 15  1  1  0
 23 16  1  0
  9  4  1  0
 15 10  1  0
 27 30  1  0
M  END
> <minimizedAffinity>
-8.89115

> <CNNscore>
0.2679232657

> <CNNaffinity>
6.3777942657

> <CNN_VS>
1.7087594271

> <CNNaffinity_variance>
0.4006599188

$$$$



 32 35  0  0  0  0  0  0  0  0999 V2000
   27.9114   55.8855   -4.3653 C   0  0  0  0  0  0  0  0  0  0  0  0
   26.9131   55.0528   -3.6888 N   0  0  0  0  0  0  0  0  0  0  0  0
   27.0417   53.7699   -3.6889 C   0  0  0  0  0  0  0  0  0  0  0  0
   28.1653   53.0175   -4.3357 C   0  0  0  0  0  0  0  0  0  0  0  0
   27.8242   51.8686   -5.0769 C   0  0  0  0  0  0  0  0  0  0  0  0
   28.8153   51.0445   -5.6055 C   0  0  0  0  0  0  0  0  0  0  0  0
   30.1540   51.3738   -5.3993 C   0  0  0  0  0  0  0  0  0  0  0  0
   30.5100   52.5270   -4.6949 C   0  0  0  0  0  0  0  0  0  0  0  0
   29.5197   53.3650   -4.1653 C   0  0  0  0  0  0  0  0  0  0  0  0
   29.8963   54.5810   -3.5382 N   0  0  0  0  0  0  0  0  0  0  0  0
   31.0283   54.8924   -2.8008 C   0  0  0  0  0  0  0  0  0  0  0  0
   32.0492   53.9369   -2.3102 C   0  0  0  0  0  0  0  0  0  0  0  0
   31.0147   56.1764   -2.5038 N   0  0  0  0  0  0  0  0  0  0  0  0
   29.8687   56.7228   -3.0061 N   0  0  0  0  0  0  0  0  0  0  0  0
   29.1959   55.7689   -3.6142 C   0  0  0  0  0  0  0  0  0  0  0  0
   25.9797   52.9960   -2.9700 C   0  0  0  0  0  0  0  0  0  0  0  0
   24.6589   52.9749   -3.4308 C   0  0  0  0  0  0  0  0  0  0  0  0
   23.6954   52.2324   -2.7432 C   0  0  0  0  0  0  0  0  0  0  0  0
   24.0457   51.5027   -1.6019 C   0  0  0  0  0  0  0  0  0  0  0  0
   22.7926   50.6169   -0.8091 Cl  0  0  0  0  0  0  0  0  0  0  0  0
   25.3704   51.5116   -1.1501 C   0  0  0  0  0  0  0  0  0  0  0  0
   25.9361   50.5466    0.3846 Br  0  0  0  0  0  0  0  0  0  0  0  0
   26.3364   52.2541   -1.8367 C   0  0  0  0  0  0  0  0  0  0  0  0
   28.6132   49.9020   -6.3266 O   0  0  0  0  0  0  0  0  0  0  0  0
   28.0812   48.7799   -5.6316 C   0  0  0  0  0  0  0  0  0  0  0  0
   27.3980   57.3269   -4.3727 C   0  0  0  0  0  0  0  0  0  0  0  0
   24.9889   57.4143   -4.4836 N   0  0  0  0  0  0  0  0  0  0  0  0
   26.1538   57.4704   -5.2231 C   0  0  0  0  0  0  0  0  0  0  0  0
   26.1704   57.6735   -6.4331 O   0  0  0  0  0  0  0  0  0  0  0  0
   25.0465   57.2412   -3.5162 H   0  0  0  0  0  0  0  0  0  0  0  0
   23.2739   59.0626   -5.0832 C   0  0  0  0  0  0  0  0  0  0  0  0
   23.6867   57.6018   -5.0853 C   0  0  0  0  0  0  0  0  0  0  0  0
 31 32  1  0
 32 27  1  0
 27 28  1  0
 28 29  2  0
 28 26  1  0
  1 26  1  0
  1  2  1  0
  2  3  2  0
  3 16  1  0
 16 17  2  0
 17 18  1  0
 18 19  2  0
 19 20  1  0
 19 21  1  0
 21 22  1  0
 21 23  2  0
  3  4  1  0
  4  5  2  0
  5  6  1  0
  6 24  1  0
 24 25  1  0
  6  7  2  0
  7  8  1  0
  8  9  2  0
  9 10  1  0
 10 11  1  0
 11 12  1  0
 11 13  2  0
 13 14  1  0
 14 15  2  0
 15  1  1  0
 23 16  1  0
  9  4  1  0
 15 10  1  0
 27 30  1  0
M  END
> <minimizedAffinity>
-5.47610

> <CNNscore>
0.2339142859

> <CNNaffinity>
5.5333175659

> <CNN_VS>
1.2943220139

> <CNNaffinity_variance>
0.4226008952

$$$$



 32 35  0  0  0  0  0  0  0  0999 V2000
   28.1076   50.8986   -1.0725 C   0  0  0  0  0  0  0  0  0  0  0  0
   27.1451   50.0850   -0.3246 N   0  0  0  0  0  0  0  0  0  0  0  0
   25.9182   50.0218   -0.7158 C   0  0  0  0  0  0  0  0  0  0  0  0
   25.3603   50.7244   -1.9166 C   0  0  0  0  0  0  0  0  0  0  0  0
   24.1131   51.3623   -1.7640 C   0  0  0  0  0  0  0  0  0  0  0  0
   23.4675   51.9310   -2.8597 C   0  0  0  0  0  0  0  0  0  0  0  0
   24.0743   51.8691   -4.1131 C   0  0  0  0  0  0  0  0  0  0  0  0
   25.3260   51.2695   -4.2766 C   0  0  0  0  0  0  0  0  0  0  0  0
   25.9853   50.7007   -3.1788 C   0  0  0  0  0  0  0  0  0  0  0  0
   27.2965   50.1834   -3.3433 N   0  0  0  0  0  0  0  0  0  0  0  0
   27.8847   49.5733   -4.4405 C   0  0  0  0  0  0  0  0  0  0  0  0
   27.1947   49.1240   -5.6725 C   0  0  0  0  0  0  0  0  0  0  0  0
   29.1585   49.3521   -4.1845 N   0  0  0  0  0  0  0  0  0  0  0  0
   29.4231   49.7775   -2.9143 N   0  0  0  0  0  0  0  0  0  0  0  0
   28.3097   50.2639   -2.4082 C   0  0  0  0  0  0  0  0  0  0  0  0
   25.0035   49.1637    0.1030 C   0  0  0  0  0  0  0  0  0  0  0  0
   23.6797   48.9347   -0.2874 C   0  0  0  0  0  0  0  0  0  0  0  0
   22.8568   48.1187    0.4933 C   0  0  0  0  0  0  0  0  0  0  0  0
   23.3517   47.5221    1.6583 C   0  0  0  0  0  0  0  0  0  0  0  0
   22.2663   46.5329    2.5676 Cl  0  0  0  0  0  0  0  0  0  0  0  0
   24.6807   47.7390    2.0403 C   0  0  0  0  0  0  0  0  0  0  0  0
   25.4375   46.9655    3.6009 Br  0  0  0  0  0  0  0  0  0  0  0  0
   25.5060   48.5554    1.2605 C   0  0  0  0  0  0  0  0  0  0  0  0
   22.2560   52.5621   -2.8428 O   0  0  0  0  0  0  0  0  0  0  0  0
   21.8048   53.1363   -4.0641 C   0  0  0  0  0  0  0  0  0  0  0  0
   29.4112   50.9430   -0.2727 C   0  0  0  0  0  0  0  0  0  0  0  0
   30.0288   52.3763    1.5678 N   0  0  0  0  0  0  0  0  0  0  0  0
   29.1718   51.3737    1.1587 C   0  0  0  0  0  0  0  0  0  0  0  0
   28.2764   50.9263    1.8684 O   0  0  0  0  0  0  0  0  0  0  0  0
   30.7304   52.6851    0.9501 H   0  0  0  0  0  0  0  0  0  0  0  0
   28.9627   52.2345    3.7727 C   0  0  0  0  0  0  0  0  0  0  0  0
   29.9282   52.9874    2.8753 C   0  0  0  0  0  0  0  0  0  0  0  0
 31 32  1  0
 32 27  1  0
 27 28  1  0
 28 29  2  0
 28 26  1  0
  1 26  1  0
  1  2  1  0
  2  3  2  0
  3 16  1  0
 16 17  2  0
 17 18  1  0
 18 19  2  0
 19 20  1  0
 19 21  1  0
 21 22  1  0
 21 23  2  0
  3  4  1  0
  4  5  2  0
  5  6  1  0
  6 24  1  0
 24 25  1  0
  6  7  2  0
  7  8  1  0
  8  9  2  0
  9 10  1  0
 10 11  1  0
 11 12  1  0
 11 13  2  0
 13 14  1  0
 14 15  2  0
 15  1  1  0
 23 16  1  0
  9  4  1  0
 15 10  1  0
 27 30  1  0
M  END
> <minimizedAffinity>
-8.45943

> <CNNscore>
0.2222429514

> <CNNaffinity>
6.0587134361

> <CNN_VS>
1.3465063572

> <CNNaffinity_variance>
0.7473207116

$$$$
