


 28 30  0  0  0  0  0  0  0  0999 V2000
   38.4850    8.7403   17.7082 C   0  0  0  0  0  0  0  0  0  0  0  0
   38.4645    7.3373   18.0178 O   0  0  0  0  0  0  0  0  0  0  0  0
   37.1163    6.8457   17.7849 C   0  0  0  0  0  0  0  0  0  0  0  0
   36.2882    8.0295   17.2630 C   0  0  0  0  0  0  0  0  0  0  0  0
   36.3562    8.0649   15.8221 O   0  0  0  0  0  0  0  0  0  0  0  0
   37.0438    9.2301   17.8172 C   0  0  0  0  0  0  0  0  0  0  0  0
   36.7943   10.4156   17.0572 O   0  0  0  0  0  0  0  0  0  0  0  0
   37.2845    8.1017   15.5430 H   0  0  0  0  0  0  0  0  0  0  0  0
   37.0209   10.2573   16.1274 H   0  0  0  0  0  0  0  0  0  0  0  0
   36.6822    6.1933   19.0011 N   0  0  0  0  0  0  0  0  0  0  0  0
   35.7651    6.7388   19.8691 C   0  0  0  0  0  0  0  0  0  0  0  0
   35.5262    5.9521   20.8953 N   0  0  0  0  0  0  0  0  0  0  0  0
   36.3074    4.8388   20.6751 C   0  0  0  0  0  0  0  0  0  0  0  0
   36.4849    3.6525   21.4063 C   0  0  0  0  0  0  0  0  0  0  0  0
   35.8100    3.3780   22.5865 N   0  0  0  0  0  0  0  0  0  0  0  0
   37.3692    2.7398   20.9464 N   0  0  0  0  0  0  0  0  0  0  0  0
   38.0176    2.9988   19.7934 C   0  0  0  0  0  0  0  0  0  0  0  0
   37.9159    4.0842   18.9952 N   0  0  0  0  0  0  0  0  0  0  0  0
   37.0424    4.9725   19.5047 C   0  0  0  0  0  0  0  0  0  0  0  0
   35.1603    4.0255   22.9441 H   0  0  0  0  0  0  0  0  0  0  0  0
   35.9807    2.5356   23.0666 H   0  0  0  0  0  0  0  0  0  0  0  0
   39.4548    9.4618   18.6505 C   0  0  0  0  0  0  0  0  0  0  0  0
   39.4490   10.8830   18.5080 O   0  0  0  0  0  0  0  0  0  0  0  0
   40.7281   11.4667   18.6649 C   0  0  0  0  0  0  0  0  0  0  0  0
   40.3642   12.1868   16.3279 C   0  0  0  0  0  0  0  0  0  0  0  0
   40.9991   12.5612   17.6545 N   0  0  0  0  0  0  0  0  0  0  0  0
   42.5008   12.7014   17.4757 C   0  0  0  0  0  0  0  0  0  0  0  0
   40.4179   13.8685   18.1529 C   0  0  0  0  0  0  0  0  0  0  0  0
 25 26  1  0
 26 27  1  0
 26 28  1  0
 26 24  1  0
 24 23  1  0
 23 22  1  0
  1 22  1  0
  1  2  1  0
  2  3  1  0
  3 10  1  0
 10 11  1  0
 11 12  2  0
 12 13  1  0
 13 14  2  0
 14 15  1  0
 14 16  1  0
 16 17  2  0
 17 18  1  0
 18 19  2  0
  3  4  1  0
  4  5  1  0
  4  6  1  0
  6  7  1  0
  6  1  1  0
 19 10  1  0
 19 13  1  0
 15 20  1  0
 15 21  1  0
  5  8  1  0
  7  9  1  0
M  CHG 1  26   1
M  END
> <minimizedAffinity>
-4.88218

> <CNNscore>
0.8946304321

> <CNNaffinity>
4.1275496483

> <CNN_VS>
3.6926314831

> <CNNaffinity_variance>
0.7313378453

$$$$



 28 30  0  0  0  0  0  0  0  0999 V2000
   41.4150    2.2784   19.8030 C   0  0  0  0  0  0  0  0  0  0  0  0
   40.0877    2.3198   20.3517 O   0  0  0  0  0  0  0  0  0  0  0  0
   39.1447    2.3349   19.2453 C   0  0  0  0  0  0  0  0  0  0  0  0
   39.9671    2.2569   17.9503 C   0  0  0  0  0  0  0  0  0  0  0  0
   40.1438    0.8745   17.5762 O   0  0  0  0  0  0  0  0  0  0  0  0
   41.3141    2.8223   18.3808 C   0  0  0  0  0  0  0  0  0  0  0  0
   42.3761    2.3773   17.5324 O   0  0  0  0  0  0  0  0  0  0  0  0
   40.5509    0.3901   18.3114 H   0  0  0  0  0  0  0  0  0  0  0  0
   42.3919    1.4076   17.5158 H   0  0  0  0  0  0  0  0  0  0  0  0
   38.2792    3.4785   19.4357 N   0  0  0  0  0  0  0  0  0  0  0  0
   38.2940    4.5856   18.6195 C   0  0  0  0  0  0  0  0  0  0  0  0
   37.4095    5.4853   18.9898 N   0  0  0  0  0  0  0  0  0  0  0  0
   36.7795    4.9310   20.0826 C   0  0  0  0  0  0  0  0  0  0  0  0
   35.7453    5.3975   20.9110 C   0  0  0  0  0  0  0  0  0  0  0  0
   35.1127    6.6176   20.7247 N   0  0  0  0  0  0  0  0  0  0  0  0
   35.3579    4.6270   21.9516 N   0  0  0  0  0  0  0  0  0  0  0  0
   35.9628    3.4353   22.1280 C   0  0  0  0  0  0  0  0  0  0  0  0
   36.9456    2.8724   21.3913 N   0  0  0  0  0  0  0  0  0  0  0  0
   37.3123    3.6845   20.3826 C   0  0  0  0  0  0  0  0  0  0  0  0
   35.3753    7.1987   19.9746 H   0  0  0  0  0  0  0  0  0  0  0  0
   34.4011    6.9026   21.3424 H   0  0  0  0  0  0  0  0  0  0  0  0
   42.3690    3.0731   20.7015 C   0  0  0  0  0  0  0  0  0  0  0  0
   42.0607    2.9839   22.0933 O   0  0  0  0  0  0  0  0  0  0  0  0
   42.9606    3.7041   22.9135 C   0  0  0  0  0  0  0  0  0  0  0  0
   42.4257    2.9184   25.1958 C   0  0  0  0  0  0  0  0  0  0  0  0
   43.4616    2.8896   24.0872 N   0  0  0  0  0  0  0  0  0  0  0  0
   44.7581    3.5011   24.5895 C   0  0  0  0  0  0  0  0  0  0  0  0
   43.7055    1.4606   23.6472 C   0  0  0  0  0  0  0  0  0  0  0  0
 25 26  1  0
 26 27  1  0
 26 28  1  0
 26 24  1  0
 24 23  1  0
 23 22  1  0
  1 22  1  0
  1  2  1  0
  2  3  1  0
  3 10  1  0
 10 11  1  0
 11 12  2  0
 12 13  1  0
 13 14  2  0
 14 15  1  0
 14 16  1  0
 16 17  2  0
 17 18  1  0
 18 19  2  0
  3  4  1  0
  4  5  1  0
  4  6  1  0
  6  7  1  0
  6  1  1  0
 19 10  1  0
 19 13  1  0
 15 20  1  0
 15 21  1  0
  5  8  1  0
  7  9  1  0
M  CHG 1  26   1
M  END
> <minimizedAffinity>
-4.93035

> <CNNscore>
0.8651342988

> <CNNaffinity>
4.0028400421

> <CNN_VS>
3.4629940987

> <CNNaffinity_variance>
0.5731799006

$$$$



 28 30  0  0  0  0  0  0  0  0999 V2000
   37.3497    9.1511   17.5377 C   0  0  0  0  0  0  0  0  0  0  0  0
   37.9714    8.1804   18.3956 O   0  0  0  0  0  0  0  0  0  0  0  0
   37.5270    6.8610   17.9771 C   0  0  0  0  0  0  0  0  0  0  0  0
   36.6091    7.0586   16.7615 C   0  0  0  0  0  0  0  0  0  0  0  0
   37.3952    7.0057   15.5526 O   0  0  0  0  0  0  0  0  0  0  0  0
   36.1071    8.4833   16.9556 C   0  0  0  0  0  0  0  0  0  0  0  0
   35.6781    9.0711   15.7244 O   0  0  0  0  0  0  0  0  0  0  0  0
   38.1057    7.6643   15.5998 H   0  0  0  0  0  0  0  0  0  0  0  0
   36.4033    9.0393   15.0810 H   0  0  0  0  0  0  0  0  0  0  0  0
   36.9810    6.2028   19.1441 N   0  0  0  0  0  0  0  0  0  0  0  0
   36.0721    6.7919   19.9920 C   0  0  0  0  0  0  0  0  0  0  0  0
   35.7182    5.9903   20.9724 N   0  0  0  0  0  0  0  0  0  0  0  0
   36.4127    4.8230   20.7412 C   0  0  0  0  0  0  0  0  0  0  0  0
   36.4538    3.5990   21.4293 C   0  0  0  0  0  0  0  0  0  0  0  0
   35.7018    3.3390   22.5653 N   0  0  0  0  0  0  0  0  0  0  0  0
   37.2794    2.6316   20.9719 N   0  0  0  0  0  0  0  0  0  0  0  0
   38.0025    2.8774   19.8611 C   0  0  0  0  0  0  0  0  0  0  0  0
   38.0315    3.9970   19.1055 N   0  0  0  0  0  0  0  0  0  0  0  0
   37.2123    4.9372   19.6118 C   0  0  0  0  0  0  0  0  0  0  0  0
   35.0923    4.0260   22.9200 H   0  0  0  0  0  0  0  0  0  0  0  0
   35.7774    2.4674   23.0168 H   0  0  0  0  0  0  0  0  0  0  0  0
   37.0496   10.4256   18.3342 C   0  0  0  0  0  0  0  0  0  0  0  0
   38.1820   10.9550   19.0254 O   0  0  0  0  0  0  0  0  0  0  0  0
   37.9573   11.1387   20.4100 C   0  0  0  0  0  0  0  0  0  0  0  0
   40.3175   11.8273   20.1503 C   0  0  0  0  0  0  0  0  0  0  0  0
   39.1980   11.5948   21.1481 N   0  0  0  0  0  0  0  0  0  0  0  0
   39.6104   10.5107   22.1287 C   0  0  0  0  0  0  0  0  0  0  0  0
   38.9010   12.8777   21.8973 C   0  0  0  0  0  0  0  0  0  0  0  0
 25 26  1  0
 26 27  1  0
 26 28  1  0
 26 24  1  0
 24 23  1  0
 23 22  1  0
  1 22  1  0
  1  2  1  0
  2  3  1  0
  3 10  1  0
 10 11  1  0
 11 12  2  0
 12 13  1  0
 13 14  2  0
 14 15  1  0
 14 16  1  0
 16 17  2  0
 17 18  1  0
 18 19  2  0
  3  4  1  0
  4  5  1  0
  4  6  1  0
  6  7  1  0
  6  1  1  0
 19 10  1  0
 19 13  1  0
 15 20  1  0
 15 21  1  0
  5  8  1  0
  7  9  1  0
M  CHG 1  26   1
M  END
> <minimizedAffinity>
-5.24928

> <CNNscore>
0.8554485440

> <CNNaffinity>
3.9300720692

> <CNN_VS>
3.3619744778

> <CNNaffinity_variance>
1.0963573456

$$$$



 28 30  0  0  0  0  0  0  0  0999 V2000
   37.2077    9.2910   17.4944 C   0  0  0  0  0  0  0  0  0  0  0  0
   37.8511    8.3579   18.3777 O   0  0  0  0  0  0  0  0  0  0  0  0
   37.4726    7.0159   17.9663 C   0  0  0  0  0  0  0  0  0  0  0  0
   36.5741    7.1598   16.7288 C   0  0  0  0  0  0  0  0  0  0  0  0
   37.3883    7.1265   15.5379 O   0  0  0  0  0  0  0  0  0  0  0  0
   36.0078    8.5639   16.8940 C   0  0  0  0  0  0  0  0  0  0  0  0
   35.5815    9.1183   15.6465 O   0  0  0  0  0  0  0  0  0  0  0  0
   38.0689    7.8155   15.5921 H   0  0  0  0  0  0  0  0  0  0  0  0
   36.3214    9.1101   15.0194 H   0  0  0  0  0  0  0  0  0  0  0  0
   36.9295    6.3486   19.1295 N   0  0  0  0  0  0  0  0  0  0  0  0
   36.0031    6.9214   19.9696 C   0  0  0  0  0  0  0  0  0  0  0  0
   35.6562    6.1141   20.9478 N   0  0  0  0  0  0  0  0  0  0  0  0
   36.3738    4.9597   20.7231 C   0  0  0  0  0  0  0  0  0  0  0  0
   36.4320    3.7371   21.4126 C   0  0  0  0  0  0  0  0  0  0  0  0
   35.6758    3.4641   22.5427 N   0  0  0  0  0  0  0  0  0  0  0  0
   37.2789    2.7847   20.9626 N   0  0  0  0  0  0  0  0  0  0  0  0
   38.0062    3.0430   19.8574 C   0  0  0  0  0  0  0  0  0  0  0  0
   38.0206    4.1625   19.1011 N   0  0  0  0  0  0  0  0  0  0  0  0
   37.1802    5.0878   19.6001 C   0  0  0  0  0  0  0  0  0  0  0  0
   35.0510    4.1400   22.8920 H   0  0  0  0  0  0  0  0  0  0  0  0
   35.7638    2.5944   22.9956 H   0  0  0  0  0  0  0  0  0  0  0  0
   36.8361   10.5607   18.2681 C   0  0  0  0  0  0  0  0  0  0  0  0
   36.9896   11.7633   17.5127 O   0  0  0  0  0  0  0  0  0  0  0  0
   38.1150   11.7464   16.6556 C   0  0  0  0  0  0  0  0  0  0  0  0
   38.9804   14.0609   16.5738 C   0  0  0  0  0  0  0  0  0  0  0  0
   38.2212   12.9948   15.8057 N   0  0  0  0  0  0  0  0  0  0  0  0
   36.8214   13.4952   15.4940 C   0  0  0  0  0  0  0  0  0  0  0  0
   38.9490   12.6719   14.5167 C   0  0  0  0  0  0  0  0  0  0  0  0
 25 26  1  0
 26 27  1  0
 26 28  1  0
 26 24  1  0
 24 23  1  0
 23 22  1  0
  1 22  1  0
  1  2  1  0
  2  3  1  0
  3 10  1  0
 10 11  1  0
 11 12  2  0
 12 13  1  0
 13 14  2  0
 14 15  1  0
 14 16  1  0
 16 17  2  0
 17 18  1  0
 18 19  2  0
  3  4  1  0
  4  5  1  0
  4  6  1  0
  6  7  1  0
  6  1  1  0
 19 10  1  0
 19 13  1  0
 15 20  1  0
 15 21  1  0
  5  8  1  0
  7  9  1  0
M  CHG 1  26   1
M  END
> <minimizedAffinity>
-5.55330

> <CNNscore>
0.7914245725

> <CNNaffinity>
3.7491352558

> <CNN_VS>
2.9671578407

> <CNNaffinity_variance>
1.2872825861

$$$$



 28 30  0  0  0  0  0  0  0  0999 V2000
   37.4419    9.1769   17.4068 C   0  0  0  0  0  0  0  0  0  0  0  0
   38.0225    8.1096   18.1738 O   0  0  0  0  0  0  0  0  0  0  0  0
   37.3755    6.8691   17.7789 C   0  0  0  0  0  0  0  0  0  0  0  0
   36.3686    7.2177   16.6725 C   0  0  0  0  0  0  0  0  0  0  0  0
   37.0125    7.1090   15.3857 O   0  0  0  0  0  0  0  0  0  0  0  0
   36.0719    8.6860   16.9475 C   0  0  0  0  0  0  0  0  0  0  0  0
   35.5948    9.3622   15.7811 O   0  0  0  0  0  0  0  0  0  0  0  0
   37.8010    7.6737   15.3699 H   0  0  0  0  0  0  0  0  0  0  0  0
   36.2398    9.2632   15.0634 H   0  0  0  0  0  0  0  0  0  0  0  0
   36.8750    6.2445   18.9842 N   0  0  0  0  0  0  0  0  0  0  0  0
   35.9675    6.8417   19.8279 C   0  0  0  0  0  0  0  0  0  0  0  0
   35.6593    6.0717   20.8482 N   0  0  0  0  0  0  0  0  0  0  0  0
   36.3833    4.9165   20.6491 C   0  0  0  0  0  0  0  0  0  0  0  0
   36.4762    3.7239   21.3857 C   0  0  0  0  0  0  0  0  0  0  0  0
   35.7573    3.4897   22.5484 N   0  0  0  0  0  0  0  0  0  0  0  0
   37.3203    2.7628   20.9495 N   0  0  0  0  0  0  0  0  0  0  0  0
   38.0114    2.9830   19.8132 C   0  0  0  0  0  0  0  0  0  0  0  0
   37.9901    4.0705   19.0118 N   0  0  0  0  0  0  0  0  0  0  0  0
   37.1543    5.0068   19.4979 C   0  0  0  0  0  0  0  0  0  0  0  0
   35.1354    4.1728   22.8887 H   0  0  0  0  0  0  0  0  0  0  0  0
   35.8688    2.6403   23.0335 H   0  0  0  0  0  0  0  0  0  0  0  0
   37.3878   10.4516   18.2560 C   0  0  0  0  0  0  0  0  0  0  0  0
   36.3906   11.3839   17.8359 O   0  0  0  0  0  0  0  0  0  0  0  0
   35.9265   12.2166   18.8812 C   0  0  0  0  0  0  0  0  0  0  0  0
   37.2746   14.2015   19.4772 C   0  0  0  0  0  0  0  0  0  0  0  0
   36.1486   13.6874   18.5992 N   0  0  0  0  0  0  0  0  0  0  0  0
   34.8715   14.4451   18.9180 C   0  0  0  0  0  0  0  0  0  0  0  0
   36.5063   13.8768   17.1392 C   0  0  0  0  0  0  0  0  0  0  0  0
 25 26  1  0
 26 27  1  0
 26 28  1  0
 26 24  1  0
 24 23  1  0
 23 22  1  0
  1 22  1  0
  1  2  1  0
  2  3  1  0
  3 10  1  0
 10 11  1  0
 11 12  2  0
 12 13  1  0
 13 14  2  0
 14 15  1  0
 14 16  1  0
 16 17  2  0
 17 18  1  0
 18 19  2  0
  3  4  1  0
  4  5  1  0
  4  6  1  0
  6  7  1  0
  6  1  1  0
 19 10  1  0
 19 13  1  0
 15 20  1  0
 15 21  1  0
  5  8  1  0
  7  9  1  0
M  CHG 1  26   1
M  END
> <minimizedAffinity>
-5.61289

> <CNNscore>
0.7893176079

> <CNNaffinity>
3.8290834427

> <CNN_VS>
3.0223629475

> <CNNaffinity_variance>
1.1386035681

$$$$



 28 30  0  0  0  0  0  0  0  0999 V2000
   38.2444    8.8242   17.9623 C   0  0  0  0  0  0  0  0  0  0  0  0
   38.2265    7.4024   18.1693 O   0  0  0  0  0  0  0  0  0  0  0  0
   36.8568    6.9424   18.0086 C   0  0  0  0  0  0  0  0  0  0  0  0
   36.0087    8.1695   17.6418 C   0  0  0  0  0  0  0  0  0  0  0  0
   35.9643    8.3107   16.2064 O   0  0  0  0  0  0  0  0  0  0  0  0
   36.8239    9.3184   18.2205 C   0  0  0  0  0  0  0  0  0  0  0  0
   36.5340   10.5593   17.5712 O   0  0  0  0  0  0  0  0  0  0  0  0
   36.8683    8.3591   15.8582 H   0  0  0  0  0  0  0  0  0  0  0  0
   36.6846   10.4680   16.6174 H   0  0  0  0  0  0  0  0  0  0  0  0
   36.5092    6.2061   19.2046 N   0  0  0  0  0  0  0  0  0  0  0  0
   35.5992    6.6538   20.1338 C   0  0  0  0  0  0  0  0  0  0  0  0
   35.4460    5.8042   21.1257 N   0  0  0  0  0  0  0  0  0  0  0  0
   36.2783    4.7501   20.8183 C   0  0  0  0  0  0  0  0  0  0  0  0
   36.5507    3.5409   21.4794 C   0  0  0  0  0  0  0  0  0  0  0  0
   35.9405    3.1692   22.6681 N   0  0  0  0  0  0  0  0  0  0  0  0
   37.4650    2.7047   20.9394 N   0  0  0  0  0  0  0  0  0  0  0  0
   38.0508    3.0580   19.7779 C   0  0  0  0  0  0  0  0  0  0  0  0
   37.8567    4.1743   19.0420 N   0  0  0  0  0  0  0  0  0  0  0  0
   36.9567    4.9842   19.6298 C   0  0  0  0  0  0  0  0  0  0  0  0
   35.2709    3.7596   23.0833 H   0  0  0  0  0  0  0  0  0  0  0  0
   36.1770    2.3151   23.0968 H   0  0  0  0  0  0  0  0  0  0  0  0
   39.2960    9.4646   18.8749 C   0  0  0  0  0  0  0  0  0  0  0  0
   40.5642    8.8079   18.8446 O   0  0  0  0  0  0  0  0  0  0  0  0
   41.3219    9.1066   17.6878 C   0  0  0  0  0  0  0  0  0  0  0  0
   43.3673    8.0678   16.7661 C   0  0  0  0  0  0  0  0  0  0  0  0
   41.8847    7.8689   17.0220 N   0  0  0  0  0  0  0  0  0  0  0  0
   41.1668    7.6545   15.7008 C   0  0  0  0  0  0  0  0  0  0  0  0
   41.6738    6.6676   17.9209 C   0  0  0  0  0  0  0  0  0  0  0  0
 25 26  1  0
 26 27  1  0
 26 28  1  0
 26 24  1  0
 24 23  1  0
 23 22  1  0
  1 22  1  0
  1  2  1  0
  2  3  1  0
  3 10  1  0
 10 11  1  0
 11 12  2  0
 12 13  1  0
 13 14  2  0
 14 15  1  0
 14 16  1  0
 16 17  2  0
 17 18  1  0
 18 19  2  0
  3  4  1  0
  4  5  1  0
  4  6  1  0
  6  7  1  0
  6  1  1  0
 19 10  1  0
 19 13  1  0
 15 20  1  0
 15 21  1  0
  5  8  1  0
  7  9  1  0
M  CHG 1  26   1
M  END
> <minimizedAffinity>
-4.91357

> <CNNscore>
0.7486330271

> <CNNaffinity>
4.2158265114

> <CNN_VS>
3.1561069489

> <CNNaffinity_variance>
0.6928477287

$$$$



 28 30  0  0  0  0  0  0  0  0999 V2000
   39.6589   -0.3434   12.7084 C   0  0  0  0  0  0  0  0  0  0  0  0
   38.7758   -0.5965   11.6035 O   0  0  0  0  0  0  0  0  0  0  0  0
   37.4588   -0.0921   11.9564 C   0  0  0  0  0  0  0  0  0  0  0  0
   37.5767    0.5399   13.3515 C   0  0  0  0  0  0  0  0  0  0  0  0
   37.9049    1.9388   13.2186 O   0  0  0  0  0  0  0  0  0  0  0  0
   38.7758   -0.1889   13.9434 C   0  0  0  0  0  0  0  0  0  0  0  0
   39.3972    0.5653   14.9876 O   0  0  0  0  0  0  0  0  0  0  0  0
   38.7143    2.0325   12.6924 H   0  0  0  0  0  0  0  0  0  0  0  0
   39.6496    1.4387   14.6495 H   0  0  0  0  0  0  0  0  0  0  0  0
   36.5215   -1.1797   11.7775 N   0  0  0  0  0  0  0  0  0  0  0  0
   35.4562   -1.1282   10.9089 C   0  0  0  0  0  0  0  0  0  0  0  0
   34.7571   -2.2418   10.9167 N   0  0  0  0  0  0  0  0  0  0  0  0
   35.4070   -3.0595   11.8153 C   0  0  0  0  0  0  0  0  0  0  0  0
   35.1521   -4.3702   12.2518 C   0  0  0  0  0  0  0  0  0  0  0  0
   34.0994   -5.1389   11.7779 N   0  0  0  0  0  0  0  0  0  0  0  0
   35.9627   -4.9037   13.1925 N   0  0  0  0  0  0  0  0  0  0  0  0
   36.9936   -4.1632   13.6461 C   0  0  0  0  0  0  0  0  0  0  0  0
   37.3516   -2.9100   13.2899 N   0  0  0  0  0  0  0  0  0  0  0  0
   36.5040   -2.4137   12.3697 C   0  0  0  0  0  0  0  0  0  0  0  0
   33.4935   -4.7748   11.0926 H   0  0  0  0  0  0  0  0  0  0  0  0
   33.9580   -6.0486   12.1268 H   0  0  0  0  0  0  0  0  0  0  0  0
   40.6829   -1.4783   12.8201 C   0  0  0  0  0  0  0  0  0  0  0  0
   41.0742   -1.7734   14.1618 O   0  0  0  0  0  0  0  0  0  0  0  0
   42.4177   -2.2028   14.2717 C   0  0  0  0  0  0  0  0  0  0  0  0
   41.6203   -4.4386   14.9628 C   0  0  0  0  0  0  0  0  0  0  0  0
   42.5941   -3.3186   15.2796 N   0  0  0  0  0  0  0  0  0  0  0  0
   42.3057   -2.7743   16.6679 C   0  0  0  0  0  0  0  0  0  0  0  0
   44.0155   -3.8392   15.2181 C   0  0  0  0  0  0  0  0  0  0  0  0
 25 26  1  0
 26 27  1  0
 26 28  1  0
 26 24  1  0
 24 23  1  0
 23 22  1  0
  1 22  1  0
  1  2  1  0
  2  3  1  0
  3 10  1  0
 10 11  1  0
 11 12  2  0
 12 13  1  0
 13 14  2  0
 14 15  1  0
 14 16  1  0
 16 17  2  0
 17 18  1  0
 18 19  2  0
  3  4  1  0
  4  5  1  0
  4  6  1  0
  6  7  1  0
  6  1  1  0
 19 10  1  0
 19 13  1  0
 15 20  1  0
 15 21  1  0
  5  8  1  0
  7  9  1  0
M  CHG 1  26   1
M  END
> <minimizedAffinity>
-5.17340

> <CNNscore>
0.7401090860

> <CNNaffinity>
4.5340924263

> <CNN_VS>
3.3557229042

> <CNNaffinity_variance>
0.0734759271

$$$$



 28 30  0  0  0  0  0  0  0  0999 V2000
   39.6291   -0.3543   12.6261 C   0  0  0  0  0  0  0  0  0  0  0  0
   38.7007   -0.5491   11.5468 O   0  0  0  0  0  0  0  0  0  0  0  0
   37.3880   -0.1198   12.0005 C   0  0  0  0  0  0  0  0  0  0  0  0
   37.5552    0.4032   13.4351 C   0  0  0  0  0  0  0  0  0  0  0  0
   37.8337    1.8187   13.4008 O   0  0  0  0  0  0  0  0  0  0  0  0
   38.8037   -0.3287   13.9094 C   0  0  0  0  0  0  0  0  0  0  0  0
   39.4526    0.3610   14.9811 O   0  0  0  0  0  0  0  0  0  0  0  0
   38.6130    1.9815   12.8466 H   0  0  0  0  0  0  0  0  0  0  0  0
   39.6613    1.2667   14.7034 H   0  0  0  0  0  0  0  0  0  0  0  0
   36.4766   -1.2212   11.7781 N   0  0  0  0  0  0  0  0  0  0  0  0
   35.3649   -1.1355   10.9726 C   0  0  0  0  0  0  0  0  0  0  0  0
   34.7020   -2.2700   10.9217 N   0  0  0  0  0  0  0  0  0  0  0  0
   35.4245   -3.1359   11.7132 C   0  0  0  0  0  0  0  0  0  0  0  0
   35.2342   -4.4866   12.0494 C   0  0  0  0  0  0  0  0  0  0  0  0
   34.1819   -5.2500   11.5664 N   0  0  0  0  0  0  0  0  0  0  0  0
   36.1106   -5.0674   12.8987 N   0  0  0  0  0  0  0  0  0  0  0  0
   37.1410   -4.3311   13.3602 C   0  0  0  0  0  0  0  0  0  0  0  0
   37.4402   -3.0408   13.0938 N   0  0  0  0  0  0  0  0  0  0  0  0
   36.5293   -2.5000   12.2635 C   0  0  0  0  0  0  0  0  0  0  0  0
   33.5289   -4.8520   10.9464 H   0  0  0  0  0  0  0  0  0  0  0  0
   34.0878   -6.1900   11.8436 H   0  0  0  0  0  0  0  0  0  0  0  0
   40.6915   -1.4586   12.5975 C   0  0  0  0  0  0  0  0  0  0  0  0
   41.9710   -1.0177   12.1409 O   0  0  0  0  0  0  0  0  0  0  0  0
   42.6654   -1.9956   11.3907 C   0  0  0  0  0  0  0  0  0  0  0  0
   44.3481   -2.0774   13.2002 C   0  0  0  0  0  0  0  0  0  0  0  0
   44.1479   -2.0235   11.6969 N   0  0  0  0  0  0  0  0  0  0  0  0
   44.7852   -0.7597   11.1460 C   0  0  0  0  0  0  0  0  0  0  0  0
   44.7780   -3.2396   11.0493 C   0  0  0  0  0  0  0  0  0  0  0  0
 25 26  1  0
 26 27  1  0
 26 28  1  0
 26 24  1  0
 24 23  1  0
 23 22  1  0
  1 22  1  0
  1  2  1  0
  2  3  1  0
  3 10  1  0
 10 11  1  0
 11 12  2  0
 12 13  1  0
 13 14  2  0
 14 15  1  0
 14 16  1  0
 16 17  2  0
 17 18  1  0
 18 19  2  0
  3  4  1  0
  4  5  1  0
  4  6  1  0
  6  7  1  0
  6  1  1  0
 19 10  1  0
 19 13  1  0
 15 20  1  0
 15 21  1  0
  5  8  1  0
  7  9  1  0
M  CHG 1  26   1
M  END
> <minimizedAffinity>
-5.52721

> <CNNscore>
0.6972544193

> <CNNaffinity>
4.4856524467

> <CNN_VS>
3.1276409626

> <CNNaffinity_variance>
0.0802092850

$$$$



 28 30  0  0  0  0  0  0  0  0999 V2000
   38.4741    8.6987   17.7309 C   0  0  0  0  0  0  0  0  0  0  0  0
   38.4517    7.2965   18.0439 O   0  0  0  0  0  0  0  0  0  0  0  0
   37.1072    6.8024   17.7961 C   0  0  0  0  0  0  0  0  0  0  0  0
   36.2838    7.9837   17.2611 C   0  0  0  0  0  0  0  0  0  0  0  0
   36.3692    8.0154   15.8210 O   0  0  0  0  0  0  0  0  0  0  0  0
   37.0311    9.1868   17.8212 C   0  0  0  0  0  0  0  0  0  0  0  0
   36.7892   10.3700   17.0551 O   0  0  0  0  0  0  0  0  0  0  0  0
   37.3007    8.0527   15.5531 H   0  0  0  0  0  0  0  0  0  0  0  0
   37.0272   10.2095   16.1285 H   0  0  0  0  0  0  0  0  0  0  0  0
   36.6593    6.1527   19.0087 N   0  0  0  0  0  0  0  0  0  0  0  0
   35.7176    6.6909   19.8547 C   0  0  0  0  0  0  0  0  0  0  0  0
   35.4704    5.9083   20.8820 N   0  0  0  0  0  0  0  0  0  0  0  0
   36.2721    4.8051   20.6855 C   0  0  0  0  0  0  0  0  0  0  0  0
   36.4528    3.6271   21.4291 C   0  0  0  0  0  0  0  0  0  0  0  0
   35.7594    3.3512   22.5981 N   0  0  0  0  0  0  0  0  0  0  0  0
   37.3592    2.7242   20.9933 N   0  0  0  0  0  0  0  0  0  0  0  0
   38.0259    2.9843   19.8510 C   0  0  0  0  0  0  0  0  0  0  0  0
   37.9237    4.0621   19.0427 N   0  0  0  0  0  0  0  0  0  0  0  0
   37.0276    4.9411   19.5285 C   0  0  0  0  0  0  0  0  0  0  0  0
   35.0934    3.9916   22.9382 H   0  0  0  0  0  0  0  0  0  0  0  0
   35.9331    2.5150   23.0879 H   0  0  0  0  0  0  0  0  0  0  0  0
   39.4316    9.4239   18.6829 C   0  0  0  0  0  0  0  0  0  0  0  0
   40.2379    8.5465   19.4705 O   0  0  0  0  0  0  0  0  0  0  0  0
   40.5314    9.0586   20.7562 C   0  0  0  0  0  0  0  0  0  0  0  0
   39.2680    7.0791   21.5293 C   0  0  0  0  0  0  0  0  0  0  0  0
   40.4263    8.0085   21.8416 N   0  0  0  0  0  0  0  0  0  0  0  0
   40.1761    8.7010   23.1701 C   0  0  0  0  0  0  0  0  0  0  0  0
   41.7169    7.2179   21.9107 C   0  0  0  0  0  0  0  0  0  0  0  0
 25 26  1  0
 26 27  1  0
 26 28  1  0
 26 24  1  0
 24 23  1  0
 23 22  1  0
  1 22  1  0
  1  2  1  0
  2  3  1  0
  3 10  1  0
 10 11  1  0
 11 12  2  0
 12 13  1  0
 13 14  2  0
 14 15  1  0
 14 16  1  0
 16 17  2  0
 17 18  1  0
 18 19  2  0
  3  4  1  0
  4  5  1  0
  4  6  1  0
  6  7  1  0
  6  1  1  0
 19 10  1  0
 19 13  1  0
 15 20  1  0
 15 21  1  0
  5  8  1  0
  7  9  1  0
M  CHG 1  26   1
M  END
> <minimizedAffinity>
-5.05181

> <CNNscore>
0.6808121204

> <CNNaffinity>
4.2871298790

> <CNN_VS>
2.9187300205

> <CNNaffinity_variance>
0.6111839414

$$$$
