


 20 19  0  0  0  0  0  0  0  0999 V2000
   -3.0187   -9.6022  -18.3943 C   0  0  0  0  0  0  0  0  0  0  0  0
   -3.2079  -10.9908  -19.0647 C   0  0  0  0  0  0  0  0  0  0  0  0
   -2.0653   -8.8040  -19.3015 C   0  0  0  0  0  0  0  0  0  0  0  0
   -2.3108   -9.8231  -17.0230 C   0  0  0  0  0  0  0  0  0  0  0  0
   -0.9915  -10.6064  -17.0574 C   0  0  0  0  0  0  0  0  0  0  0  0
   -0.9749  -11.8053  -16.1001 C   0  0  0  0  0  0  0  0  0  0  0  0
    0.3766  -12.1357  -15.4589 C   0  0  0  0  0  0  0  0  0  0  0  0
    1.5358  -11.3073  -16.0162 C   0  0  0  0  0  0  0  0  0  0  0  0
    1.6743   -9.9772  -15.2721 C   0  0  0  0  0  0  0  0  0  0  0  0
    4.0811  -10.3353  -14.6169 C   0  0  0  0  0  0  0  0  0  0  0  0
    3.1021   -9.4385  -15.3576 C   0  0  0  0  0  0  0  0  0  0  0  0
   -4.4407   -8.9524  -18.3098 C   0  0  0  0  0  0  0  0  0  0  0  0
   -4.7037   -7.4644  -17.9297 C   0  0  0  0  0  0  0  0  0  0  0  0
   -4.5382   -6.5249  -19.1438 C   0  0  0  0  0  0  0  0  0  0  0  0
   -3.7361   -6.9577  -16.8375 C   0  0  0  0  0  0  0  0  0  0  0  0
   -6.1480   -7.2960  -17.3158 C   0  0  0  0  0  0  0  0  0  0  0  0
   -7.4744   -7.5081  -18.1173 C   0  0  0  0  0  0  0  0  0  0  0  0
   -8.6681   -7.9168  -17.2474 C   0  0  0  0  0  0  0  0  0  0  0  0
   -7.8587   -6.2747  -18.9561 C   0  0  0  0  0  0  0  0  0  0  0  0
   -7.2105   -8.6622  -19.1182 C   0  0  0  0  0  0  0  0  0  0  0  0
 10 11  1  0
 11  9  1  0
  9  8  1  0
  8  7  1  0
  7  6  1  0
  6  5  1  0
  5  4  1  0
  4  1  1  0
  1  2  1  0
  1  3  1  0
  1 12  1  0
 12 13  1  0
 13 14  1  0
 13 15  1  0
 13 16  1  0
 16 17  1  0
 17 18  1  0
 17 19  1  0
 17 20  1  0
M  END
> <minimizedAffinity>
-5.60279

> <CNNscore>
0.7967079282

> <CNNaffinity>
6.7473239899

> <CNN_VS>
5.3756465912

> <CNNaffinity_variance>
0.0087482808

$$$$



 20 19  0  0  0  0  0  0  0  0999 V2000
   -7.4232   -7.5106  -18.0194 C   0  0  0  0  0  0  0  0  0  0  0  0
   -7.7959   -6.3175  -18.9421 C   0  0  0  0  0  0  0  0  0  0  0  0
   -7.2121   -8.7264  -18.9392 C   0  0  0  0  0  0  0  0  0  0  0  0
   -8.6459   -7.8061  -17.0986 C   0  0  0  0  0  0  0  0  0  0  0  0
  -10.0146   -7.8798  -17.7890 C   0  0  0  0  0  0  0  0  0  0  0  0
  -10.2146   -9.1672  -18.5993 C   0  0  0  0  0  0  0  0  0  0  0  0
  -11.6635   -9.5301  -18.9394 C   0  0  0  0  0  0  0  0  0  0  0  0
  -11.7880  -10.7329  -19.8766 C   0  0  0  0  0  0  0  0  0  0  0  0
  -13.0920  -11.4949  -19.6298 C   0  0  0  0  0  0  0  0  0  0  0  0
  -14.3247  -13.0648  -21.1680 C   0  0  0  0  0  0  0  0  0  0  0  0
  -13.0789  -12.8577  -20.3216 C   0  0  0  0  0  0  0  0  0  0  0  0
   -6.1119   -7.0990  -17.2693 C   0  0  0  0  0  0  0  0  0  0  0  0
   -4.6762   -7.2901  -17.8438 C   0  0  0  0  0  0  0  0  0  0  0  0
   -3.5941   -6.8024  -16.8562 C   0  0  0  0  0  0  0  0  0  0  0  0
   -4.4625   -6.5117  -19.1608 C   0  0  0  0  0  0  0  0  0  0  0  0
   -4.4227   -8.8042  -18.2103 C   0  0  0  0  0  0  0  0  0  0  0  0
   -3.0059   -9.4330  -18.4198 C   0  0  0  0  0  0  0  0  0  0  0  0
   -2.0618   -8.5711  -19.2652 C   0  0  0  0  0  0  0  0  0  0  0  0
   -2.3149   -9.7833  -17.0886 C   0  0  0  0  0  0  0  0  0  0  0  0
   -3.2189  -10.7696  -19.1758 C   0  0  0  0  0  0  0  0  0  0  0  0
 10 11  1  0
 11  9  1  0
  9  8  1  0
  8  7  1  0
  7  6  1  0
  6  5  1  0
  5  4  1  0
  4  1  1  0
  1  2  1  0
  1  3  1  0
  1 12  1  0
 12 13  1  0
 13 14  1  0
 13 15  1  0
 13 16  1  0
 16 17  1  0
 17 18  1  0
 17 19  1  0
 17 20  1  0
M  END
> <minimizedAffinity>
-7.12225

> <CNNscore>
0.7625855207

> <CNNaffinity>
6.7914576530

> <CNN_VS>
5.1790671349

> <CNNaffinity_variance>
0.4040881395

$$$$



 20 19  0  0  0  0  0  0  0  0999 V2000
   -4.1690   -7.0991  -17.8439 C   0  0  0  0  0  0  0  0  0  0  0  0
   -4.5203   -6.4002  -16.5016 C   0  0  0  0  0  0  0  0  0  0  0  0
   -3.2174   -6.1511  -18.5954 C   0  0  0  0  0  0  0  0  0  0  0  0
   -5.4809   -7.2283  -18.6760 C   0  0  0  0  0  0  0  0  0  0  0  0
   -6.7370   -6.5893  -18.0685 C   0  0  0  0  0  0  0  0  0  0  0  0
   -7.8585   -7.6004  -17.7964 C   0  0  0  0  0  0  0  0  0  0  0  0
   -9.2705   -7.0206  -17.6675 C   0  0  0  0  0  0  0  0  0  0  0  0
  -10.3472   -8.0815  -17.4308 C   0  0  0  0  0  0  0  0  0  0  0  0
  -10.5180   -8.9807  -18.6572 C   0  0  0  0  0  0  0  0  0  0  0  0
  -12.0550  -10.7411  -19.6001 C   0  0  0  0  0  0  0  0  0  0  0  0
  -11.9658   -9.4469  -18.8073 C   0  0  0  0  0  0  0  0  0  0  0  0
   -3.4830   -8.4563  -17.4716 C   0  0  0  0  0  0  0  0  0  0  0  0
   -2.4476   -9.1921  -18.3740 C   0  0  0  0  0  0  0  0  0  0  0  0
   -2.0748   -8.3559  -19.6175 C   0  0  0  0  0  0  0  0  0  0  0  0
   -2.9775  -10.5482  -18.8900 C   0  0  0  0  0  0  0  0  0  0  0  0
   -1.1451   -9.5402  -17.5532 C   0  0  0  0  0  0  0  0  0  0  0  0
   -1.0181  -10.7585  -16.5806 C   0  0  0  0  0  0  0  0  0  0  0  0
   -2.2082  -10.9213  -15.6288 C   0  0  0  0  0  0  0  0  0  0  0  0
   -0.7822  -12.0851  -17.3268 C   0  0  0  0  0  0  0  0  0  0  0  0
    0.2415  -10.5063  -15.7125 C   0  0  0  0  0  0  0  0  0  0  0  0
 10 11  1  0
 11  9  1  0
  9  8  1  0
  8  7  1  0
  7  6  1  0
  6  5  1  0
  5  4  1  0
  4  1  1  0
  1  2  1  0
  1  3  1  0
  1 12  1  0
 12 13  1  0
 13 14  1  0
 13 15  1  0
 13 16  1  0
 16 17  1  0
 17 18  1  0
 17 19  1  0
 17 20  1  0
M  END
> <minimizedAffinity>
-5.47776

> <CNNscore>
0.7035338283

> <CNNaffinity>
6.5815815926

> <CNN_VS>
4.6303653717

> <CNNaffinity_variance>
0.0437976085

$$$$



 20 19  0  0  0  0  0  0  0  0999 V2000
   -3.2741   -6.9338  -18.8095 C   0  0  0  0  0  0  0  0  0  0  0  0
   -2.8424   -6.2960  -20.1588 C   0  0  0  0  0  0  0  0  0  0  0  0
   -2.4930   -6.1969  -17.7069 C   0  0  0  0  0  0  0  0  0  0  0  0
   -2.8163   -8.4240  -18.8142 C   0  0  0  0  0  0  0  0  0  0  0  0
   -3.2701   -9.2782  -17.6226 C   0  0  0  0  0  0  0  0  0  0  0  0
   -2.1380  -10.1151  -17.0127 C   0  0  0  0  0  0  0  0  0  0  0  0
   -0.7333   -9.5097  -17.0966 C   0  0  0  0  0  0  0  0  0  0  0  0
    0.3431  -10.3694  -16.4311 C   0  0  0  0  0  0  0  0  0  0  0  0
   -0.1912  -11.7632  -16.0938 C   0  0  0  0  0  0  0  0  0  0  0  0
    1.1698  -11.2468  -14.0368 C   0  0  0  0  0  0  0  0  0  0  0  0
    0.4951  -12.3366  -14.8543 C   0  0  0  0  0  0  0  0  0  0  0  0
   -4.8198   -6.7149  -18.6895 C   0  0  0  0  0  0  0  0  0  0  0  0
   -5.5535   -6.3506  -17.3640 C   0  0  0  0  0  0  0  0  0  0  0  0
   -6.0823   -4.8999  -17.3818 C   0  0  0  0  0  0  0  0  0  0  0  0
   -4.6329   -6.4754  -16.1300 C   0  0  0  0  0  0  0  0  0  0  0  0
   -6.7447   -7.3510  -17.0966 C   0  0  0  0  0  0  0  0  0  0  0  0
   -7.8280   -7.7322  -18.1585 C   0  0  0  0  0  0  0  0  0  0  0  0
   -7.4507   -8.9374  -19.0269 C   0  0  0  0  0  0  0  0  0  0  0  0
   -9.2109   -7.9776  -17.5264 C   0  0  0  0  0  0  0  0  0  0  0  0
   -7.9796   -6.5093  -19.0994 C   0  0  0  0  0  0  0  0  0  0  0  0
 10 11  1  0
 11  9  1  0
  9  8  1  0
  8  7  1  0
  7  6  1  0
  6  5  1  0
  5  4  1  0
  4  1  1  0
  1  2  1  0
  1  3  1  0
  1 12  1  0
 12 13  1  0
 13 14  1  0
 13 15  1  0
 13 16  1  0
 16 17  1  0
 17 18  1  0
 17 19  1  0
 17 20  1  0
M  END
> <minimizedAffinity>
-6.38186

> <CNNscore>
0.6755909920

> <CNNaffinity>
6.7139201164

> <CNN_VS>
4.5358638763

> <CNNaffinity_variance>
0.0256428812

$$$$



 20 19  0  0  0  0  0  0  0  0999 V2000
   -7.3031   -7.3526  -17.9507 C   0  0  0  0  0  0  0  0  0  0  0  0
   -7.9257   -6.3391  -18.9501 C   0  0  0  0  0  0  0  0  0  0  0  0
   -6.6346   -8.4494  -18.7987 C   0  0  0  0  0  0  0  0  0  0  0  0
   -8.4650   -8.0059  -17.1425 C   0  0  0  0  0  0  0  0  0  0  0  0
   -9.8538   -7.9648  -17.7945 C   0  0  0  0  0  0  0  0  0  0  0  0
  -10.0779   -9.0914  -18.8115 C   0  0  0  0  0  0  0  0  0  0  0  0
  -11.5198   -9.5872  -18.9596 C   0  0  0  0  0  0  0  0  0  0  0  0
  -11.6402  -10.8848  -19.7613 C   0  0  0  0  0  0  0  0  0  0  0  0
  -13.0763  -11.4133  -19.7475 C   0  0  0  0  0  0  0  0  0  0  0  0
  -14.3463  -13.0562  -21.1752 C   0  0  0  0  0  0  0  0  0  0  0  0
  -13.1451  -12.8492  -20.2665 C   0  0  0  0  0  0  0  0  0  0  0  0
   -6.2670   -6.5511  -17.0931 C   0  0  0  0  0  0  0  0  0  0  0  0
   -4.7393   -6.4915  -17.3937 C   0  0  0  0  0  0  0  0  0  0  0  0
   -4.4593   -6.2047  -18.8849 C   0  0  0  0  0  0  0  0  0  0  0  0
   -4.0214   -7.8156  -17.0509 C   0  0  0  0  0  0  0  0  0  0  0  0
   -4.0403   -5.3960  -16.4978 C   0  0  0  0  0  0  0  0  0  0  0  0
   -3.9321   -3.8837  -16.8822 C   0  0  0  0  0  0  0  0  0  0  0  0
   -5.2354   -3.2842  -17.4214 C   0  0  0  0  0  0  0  0  0  0  0  0
   -3.4201   -3.0156  -15.7174 C   0  0  0  0  0  0  0  0  0  0  0  0
   -2.8725   -3.7852  -18.0097 C   0  0  0  0  0  0  0  0  0  0  0  0
 10 11  1  0
 11  9  1  0
  9  8  1  0
  8  7  1  0
  7  6  1  0
  6  5  1  0
  5  4  1  0
  4  1  1  0
  1  2  1  0
  1  3  1  0
  1 12  1  0
 12 13  1  0
 13 14  1  0
 13 15  1  0
 13 16  1  0
 16 17  1  0
 17 18  1  0
 17 19  1  0
 17 20  1  0
M  END
> <minimizedAffinity>
-6.96826

> <CNNscore>
0.5931865573

> <CNNaffinity>
6.2910518646

> <CNN_VS>
3.7317674160

> <CNNaffinity_variance>
0.6594965458

$$$$



 20 19  0  0  0  0  0  0  0  0999 V2000
   -1.7641   -8.5264  -17.9628 C   0  0  0  0  0  0  0  0  0  0  0  0
   -2.1233   -8.3923  -19.4684 C   0  0  0  0  0  0  0  0  0  0  0  0
   -2.3659   -9.8604  -17.4861 C   0  0  0  0  0  0  0  0  0  0  0  0
   -2.4759   -7.3718  -17.1943 C   0  0  0  0  0  0  0  0  0  0  0  0
   -3.6229   -6.6692  -17.9333 C   0  0  0  0  0  0  0  0  0  0  0  0
   -4.1371   -5.4210  -17.2042 C   0  0  0  0  0  0  0  0  0  0  0  0
   -5.6043   -5.0550  -17.4494 C   0  0  0  0  0  0  0  0  0  0  0  0
   -6.5533   -6.2527  -17.3742 C   0  0  0  0  0  0  0  0  0  0  0  0
   -7.1640   -6.5625  -18.7427 C   0  0  0  0  0  0  0  0  0  0  0  0
   -8.8639   -7.5268  -17.1518 C   0  0  0  0  0  0  0  0  0  0  0  0
   -8.4449   -7.3853  -18.6064 C   0  0  0  0  0  0  0  0  0  0  0  0
   -0.2008   -8.5159  -17.8767 C   0  0  0  0  0  0  0  0  0  0  0  0
    0.6055   -8.0472  -16.6285 C   0  0  0  0  0  0  0  0  0  0  0  0
    0.1283   -6.6687  -16.1224 C   0  0  0  0  0  0  0  0  0  0  0  0
    2.1167   -7.9172  -16.9207 C   0  0  0  0  0  0  0  0  0  0  0  0
    0.4969   -9.1105  -15.4671 C   0  0  0  0  0  0  0  0  0  0  0  0
    1.1986  -10.5083  -15.4860 C   0  0  0  0  0  0  0  0  0  0  0  0
    1.5425  -11.0505  -14.0945 C   0  0  0  0  0  0  0  0  0  0  0  0
    0.3829  -11.5658  -16.2534 C   0  0  0  0  0  0  0  0  0  0  0  0
    2.5308  -10.3277  -16.2581 C   0  0  0  0  0  0  0  0  0  0  0  0
 10 11  1  0
 11  9  1  0
  9  8  1  0
  8  7  1  0
  7  6  1  0
  6  5  1  0
  5  4  1  0
  4  1  1  0
  1  2  1  0
  1  3  1  0
  1 12  1  0
 12 13  1  0
 13 14  1  0
 13 15  1  0
 13 16  1  0
 16 17  1  0
 17 18  1  0
 17 19  1  0
 17 20  1  0
M  END
> <minimizedAffinity>
-5.42250

> <CNNscore>
0.5873392820

> <CNNaffinity>
6.1672806740

> <CNN_VS>
3.6222863197

> <CNNaffinity_variance>
0.1140612066

$$$$



 20 19  0  0  0  0  0  0  0  0999 V2000
   -4.4753   -5.1421  -17.4672 C   0  0  0  0  0  0  0  0  0  0  0  0
   -4.1447   -5.5936  -16.0179 C   0  0  0  0  0  0  0  0  0  0  0  0
   -5.1633   -3.7702  -17.3525 C   0  0  0  0  0  0  0  0  0  0  0  0
   -5.5036   -6.1515  -18.0621 C   0  0  0  0  0  0  0  0  0  0  0  0
   -6.9346   -6.0667  -17.5140 C   0  0  0  0  0  0  0  0  0  0  0  0
   -7.9758   -6.7086  -18.4401 C   0  0  0  0  0  0  0  0  0  0  0  0
   -8.9738   -7.6604  -17.7730 C   0  0  0  0  0  0  0  0  0  0  0  0
   -9.2901   -8.8999  -18.6123 C   0  0  0  0  0  0  0  0  0  0  0  0
  -10.7946   -9.1782  -18.6443 C   0  0  0  0  0  0  0  0  0  0  0  0
  -12.5481  -10.8447  -19.3502 C   0  0  0  0  0  0  0  0  0  0  0  0
  -11.1220  -10.3599  -19.5566 C   0  0  0  0  0  0  0  0  0  0  0  0
   -3.1098   -5.0596  -18.2289 C   0  0  0  0  0  0  0  0  0  0  0  0
   -1.9416   -6.0745  -18.0472 C   0  0  0  0  0  0  0  0  0  0  0  0
   -0.7655   -5.4594  -17.2580 C   0  0  0  0  0  0  0  0  0  0  0  0
   -1.3688   -6.5583  -19.3977 C   0  0  0  0  0  0  0  0  0  0  0  0
   -2.4494   -7.3799  -17.3197 C   0  0  0  0  0  0  0  0  0  0  0  0
   -2.4134   -8.8098  -17.9527 C   0  0  0  0  0  0  0  0  0  0  0  0
   -1.6818   -9.8502  -17.0976 C   0  0  0  0  0  0  0  0  0  0  0  0
   -3.8192   -9.3365  -18.2970 C   0  0  0  0  0  0  0  0  0  0  0  0
   -1.6445   -8.6846  -19.2931 C   0  0  0  0  0  0  0  0  0  0  0  0
 10 11  1  0
 11  9  1  0
  9  8  1  0
  8  7  1  0
  7  6  1  0
  6  5  1  0
  5  4  1  0
  4  1  1  0
  1  2  1  0
  1  3  1  0
  1 12  1  0
 12 13  1  0
 13 14  1  0
 13 15  1  0
 13 16  1  0
 16 17  1  0
 17 18  1  0
 17 19  1  0
 17 20  1  0
M  END
> <minimizedAffinity>
-6.15500

> <CNNscore>
0.5817081332

> <CNNaffinity>
6.2895240784

> <CNN_VS>
3.6586673260

> <CNNaffinity_variance>
0.1812917739

$$$$



 20 19  0  0  0  0  0  0  0  0999 V2000
    0.3523   -7.7311  -17.6167 C   0  0  0  0  0  0  0  0  0  0  0  0
   -0.3163   -6.7665  -16.5988 C   0  0  0  0  0  0  0  0  0  0  0  0
    0.9293   -6.8514  -18.7400 C   0  0  0  0  0  0  0  0  0  0  0  0
   -0.7634   -8.6305  -18.2305 C   0  0  0  0  0  0  0  0  0  0  0  0
   -2.0342   -8.8071  -17.3883 C   0  0  0  0  0  0  0  0  0  0  0  0
   -3.3198   -8.4733  -18.1563 C   0  0  0  0  0  0  0  0  0  0  0  0
   -3.6512   -6.9844  -18.2985 C   0  0  0  0  0  0  0  0  0  0  0  0
   -4.9393   -6.7173  -19.0798 C   0  0  0  0  0  0  0  0  0  0  0  0
   -6.0685   -6.2685  -18.1496 C   0  0  0  0  0  0  0  0  0  0  0  0
   -8.4892   -6.7347  -17.6267 C   0  0  0  0  0  0  0  0  0  0  0  0
   -7.4380   -6.6356  -18.7205 C   0  0  0  0  0  0  0  0  0  0  0  0
    1.4680   -8.5003  -16.8325 C   0  0  0  0  0  0  0  0  0  0  0  0
    1.5114   -8.6409  -15.2814 C   0  0  0  0  0  0  0  0  0  0  0  0
    1.2974   -7.2837  -14.5767 C   0  0  0  0  0  0  0  0  0  0  0  0
    2.8626   -9.1965  -14.7798 C   0  0  0  0  0  0  0  0  0  0  0  0
    0.4275   -9.6767  -14.7880 C   0  0  0  0  0  0  0  0  0  0  0  0
    0.4701  -11.2092  -15.0984 C   0  0  0  0  0  0  0  0  0  0  0  0
    1.5018  -11.5998  -16.1623 C   0  0  0  0  0  0  0  0  0  0  0  0
    0.7001  -12.0594  -13.8349 C   0  0  0  0  0  0  0  0  0  0  0  0
   -0.9296  -11.5925  -15.6439 C   0  0  0  0  0  0  0  0  0  0  0  0
 10 11  1  0
 11  9  1  0
  9  8  1  0
  8  7  1  0
  7  6  1  0
  6  5  1  0
  5  4  1  0
  4  1  1  0
  1  2  1  0
  1  3  1  0
  1 12  1  0
 12 13  1  0
 13 14  1  0
 13 15  1  0
 13 16  1  0
 16 17  1  0
 17 18  1  0
 17 19  1  0
 17 20  1  0
M  END
> <minimizedAffinity>
-4.78478

> <CNNscore>
0.5645475388

> <CNNaffinity>
6.3791098595

> <CNN_VS>
3.6013107300

> <CNNaffinity_variance>
0.0910582468

$$$$



 20 19  0  0  0  0  0  0  0  0999 V2000
   -2.1045   -8.6622  -18.3294 C   0  0  0  0  0  0  0  0  0  0  0  0
   -3.4593   -9.4224  -18.3444 C   0  0  0  0  0  0  0  0  0  0  0  0
   -1.5722   -8.6872  -19.7734 C   0  0  0  0  0  0  0  0  0  0  0  0
   -1.1130   -9.4650  -17.4336 C   0  0  0  0  0  0  0  0  0  0  0  0
   -1.7169  -10.6078  -16.6063 C   0  0  0  0  0  0  0  0  0  0  0  0
   -0.9248  -11.9173  -16.7152 C   0  0  0  0  0  0  0  0  0  0  0  0
    0.4817  -11.9053  -16.1084 C   0  0  0  0  0  0  0  0  0  0  0  0
    0.4894  -12.0097  -14.5821 C   0  0  0  0  0  0  0  0  0  0  0  0
    1.4888  -11.0289  -13.9647 C   0  0  0  0  0  0  0  0  0  0  0  0
    1.4284   -8.5272  -13.6675 C   0  0  0  0  0  0  0  0  0  0  0  0
    1.4427   -9.6724  -14.6674 C   0  0  0  0  0  0  0  0  0  0  0  0
   -2.4162   -7.2090  -17.8368 C   0  0  0  0  0  0  0  0  0  0  0  0
   -3.0746   -6.1063  -18.7191 C   0  0  0  0  0  0  0  0  0  0  0  0
   -2.4295   -6.0323  -20.1200 C   0  0  0  0  0  0  0  0  0  0  0  0
   -2.9466   -4.6998  -18.0935 C   0  0  0  0  0  0  0  0  0  0  0  0
   -4.6263   -6.3599  -18.8573 C   0  0  0  0  0  0  0  0  0  0  0  0
   -5.6810   -5.9722  -17.7693 C   0  0  0  0  0  0  0  0  0  0  0  0
   -5.6870   -4.4819  -17.4120 C   0  0  0  0  0  0  0  0  0  0  0  0
   -7.1084   -6.4061  -18.1524 C   0  0  0  0  0  0  0  0  0  0  0  0
   -5.3067   -6.7575  -16.4860 C   0  0  0  0  0  0  0  0  0  0  0  0
 10 11  1  0
 11  9  1  0
  9  8  1  0
  8  7  1  0
  7  6  1  0
  6  5  1  0
  5  4  1  0
  4  1  1  0
  1  2  1  0
  1  3  1  0
  1 12  1  0
 12 13  1  0
 13 14  1  0
 13 15  1  0
 13 16  1  0
 16 17  1  0
 17 18  1  0
 17 19  1  0
 17 20  1  0
M  END
> <minimizedAffinity>
-6.20126

> <CNNscore>
0.5512519479

> <CNNaffinity>
6.2579989433

> <CNN_VS>
3.4497342110

> <CNNaffinity_variance>
0.0607949644

$$$$
