


 31 34  0  0  0  0  0  0  0  0999 V2000
   22.1058   11.1582   21.6167 C   0  0  0  0  0  0  0  0  0  0  0  0
   22.5010    9.9150   22.3069 N   0  0  0  0  0  0  0  0  0  0  0  0
   22.6476   10.1494   23.6343 C   0  0  0  0  0  0  0  0  0  0  0  0
   22.8270    9.2600   24.5357 N   0  0  0  0  0  0  0  0  0  0  0  0
   22.5553   11.4650   23.9247 N   0  0  0  0  0  0  0  0  0  0  0  0
   22.6624   12.0349   25.2468 C   0  0  0  0  0  0  0  0  0  0  0  0
   22.1947   12.1793   22.8033 C   0  0  0  0  0  0  0  0  0  0  0  0
   21.9446   13.3787   22.7601 O   0  0  0  0  0  0  0  0  0  0  0  0
   22.6380    9.0443   21.8684 H   0  0  0  0  0  0  0  0  0  0  0  0
   22.8892    8.3101   24.2846 H   0  0  0  0  0  0  0  0  0  0  0  0
   20.6827   10.9406   21.0654 C   0  0  0  0  0  0  0  0  0  0  0  0
   20.2229    9.6257   20.8228 C   0  0  0  0  0  0  0  0  0  0  0  0
   18.9323    9.3887   20.3452 C   0  0  0  0  0  0  0  0  0  0  0  0
   18.0829   10.4599   20.1110 C   0  0  0  0  0  0  0  0  0  0  0  0
   16.8443   10.2339   19.6548 F   0  0  0  0  0  0  0  0  0  0  0  0
   18.4999   11.7625   20.3466 C   0  0  0  0  0  0  0  0  0  0  0  0
   19.7917   12.0038   20.8244 C   0  0  0  0  0  0  0  0  0  0  0  0
   25.4787   11.6977   19.8187 C   0  0  0  0  0  0  0  0  0  0  0  0
   25.0494   12.2286   18.5945 C   0  0  0  0  0  0  0  0  0  0  0  0
   23.6925   12.4152   18.3303 C   0  0  0  0  0  0  0  0  0  0  0  0
   22.7369   12.0765   19.2885 C   0  0  0  0  0  0  0  0  0  0  0  0
   23.1214   11.5480   20.5315 C   0  0  0  0  0  0  0  0  0  0  0  0
   24.5006   11.3637   20.7722 C   0  0  0  0  0  0  0  0  0  0  0  0
   29.0394   12.2962   20.9831 C   0  0  0  0  0  0  0  0  0  0  0  0
   29.6388   11.0868   20.6287 C   0  0  0  0  0  0  0  0  0  0  0  0
   28.8947   10.0803   20.0171 C   0  0  0  0  0  0  0  0  0  0  0  0
   27.5396   10.2808   19.7545 C   0  0  0  0  0  0  0  0  0  0  0  0
   26.9097   11.4881   20.0976 C   0  0  0  0  0  0  0  0  0  0  0  0
   27.6812   12.4914   20.7162 C   0  0  0  0  0  0  0  0  0  0  0  0
   30.0158   14.4647   20.9513 C   0  0  0  0  0  0  0  0  0  0  0  0
   29.8806   13.1961   21.5787 O   0  0  0  0  0  0  0  0  0  0  0  0
 30 31  1  0
 31 24  1  0
 24 25  2  0
 25 26  1  0
 26 27  2  0
 27 28  1  0
 28 18  1  0
 18 19  2  0
 19 20  1  0
 20 21  2  0
 21 22  1  0
  1 22  1  0
  1 11  1  0
 11 12  2  0
 12 13  1  0
 13 14  2  0
 14 15  1  0
 14 16  1  0
 16 17  2  0
  1  2  1  0
  2  3  1  0
  3  4  2  0
  3  5  1  0
  5  6  1  0
  5  7  1  0
  7  8  2  0
 22 23  2  0
 28 29  2  0
 29 24  1  0
 23 18  1  0
  7  1  1  0
 17 11  1  0
  2  9  1  0
  4 10  1  0
M  END
> <minimizedAffinity>
-9.44321

> <CNNscore>
0.9640889764

> <CNNaffinity>
7.0348849297

> <CNN_VS>
6.7822551727

> <CNNaffinity_variance>
0.0377493426

$$$$



 31 34  0  0  0  0  0  0  0  0999 V2000
   22.3750   11.4829   21.5783 C   0  0  0  0  0  0  0  0  0  0  0  0
   22.6328   10.7386   22.8263 N   0  0  0  0  0  0  0  0  0  0  0  0
   22.7320   11.6014   23.8676 C   0  0  0  0  0  0  0  0  0  0  0  0
   22.7933   11.2784   25.1036 N   0  0  0  0  0  0  0  0  0  0  0  0
   22.7332   12.8873   23.4552 N   0  0  0  0  0  0  0  0  0  0  0  0
   22.8208   14.0390   24.3214 C   0  0  0  0  0  0  0  0  0  0  0  0
   22.4881   12.9568   22.1013 C   0  0  0  0  0  0  0  0  0  0  0  0
   22.3393   13.9819   21.4457 O   0  0  0  0  0  0  0  0  0  0  0  0
   22.7198    9.7602   22.8930 H   0  0  0  0  0  0  0  0  0  0  0  0
   22.7901   10.3293   25.3651 H   0  0  0  0  0  0  0  0  0  0  0  0
   20.9681   11.0832   21.0916 C   0  0  0  0  0  0  0  0  0  0  0  0
   20.1402   12.0532   20.4807 C   0  0  0  0  0  0  0  0  0  0  0  0
   18.8690   11.7226   20.0071 C   0  0  0  0  0  0  0  0  0  0  0  0
   18.4113   10.4190   20.1306 C   0  0  0  0  0  0  0  0  0  0  0  0
   17.1931   10.1002   19.6751 F   0  0  0  0  0  0  0  0  0  0  0  0
   19.2018    9.4408   20.7176 C   0  0  0  0  0  0  0  0  0  0  0  0
   20.4752    9.7682   21.1934 C   0  0  0  0  0  0  0  0  0  0  0  0
   25.8606   10.8501   20.0451 C   0  0  0  0  0  0  0  0  0  0  0  0
   25.5418   10.7503   18.6838 C   0  0  0  0  0  0  0  0  0  0  0  0
   24.2242   10.8790   18.2445 C   0  0  0  0  0  0  0  0  0  0  0  0
   23.1980   11.1134   19.1599 C   0  0  0  0  0  0  0  0  0  0  0  0
   23.4716   11.2275   20.5327 C   0  0  0  0  0  0  0  0  0  0  0  0
   24.8128   11.0879   20.9522 C   0  0  0  0  0  0  0  0  0  0  0  0
   28.9476    9.4651   21.7611 C   0  0  0  0  0  0  0  0  0  0  0  0
   29.8972   10.4252   21.4092 C   0  0  0  0  0  0  0  0  0  0  0  0
   29.5419   11.5158   20.6184 C   0  0  0  0  0  0  0  0  0  0  0  0
   28.2267   11.6523   20.1745 C   0  0  0  0  0  0  0  0  0  0  0  0
   27.2490   10.7034   20.5146 C   0  0  0  0  0  0  0  0  0  0  0  0
   27.6309    9.6082   21.3140 C   0  0  0  0  0  0  0  0  0  0  0  0
   30.2002    8.8098   23.6738 C   0  0  0  0  0  0  0  0  0  0  0  0
   29.4285    8.4456   22.5367 O   0  0  0  0  0  0  0  0  0  0  0  0
 30 31  1  0
 31 24  1  0
 24 25  2  0
 25 26  1  0
 26 27  2  0
 27 28  1  0
 28 18  1  0
 18 19  2  0
 19 20  1  0
 20 21  2  0
 21 22  1  0
  1 22  1  0
  1 11  1  0
 11 12  2  0
 12 13  1  0
 13 14  2  0
 14 15  1  0
 14 16  1  0
 16 17  2  0
  1  2  1  0
  2  3  1  0
  3  4  2  0
  3  5  1  0
  5  6  1  0
  5  7  1  0
  7  8  2  0
 22 23  2  0
 28 29  2  0
 29 24  1  0
 23 18  1  0
  7  1  1  0
 17 11  1  0
  2  9  1  0
  4 10  1  0
M  END
> <minimizedAffinity>
-9.28022

> <CNNscore>
0.9637004733

> <CNNaffinity>
6.7262268066

> <CNN_VS>
6.4820680618

> <CNNaffinity_variance>
0.1665777713

$$$$



 31 34  0  0  0  0  0  0  0  0999 V2000
   22.2861   10.8143   21.2700 C   0  0  0  0  0  0  0  0  0  0  0  0
   22.5673    9.6479   22.1293 N   0  0  0  0  0  0  0  0  0  0  0  0
   22.8058   10.0562   23.4000 C   0  0  0  0  0  0  0  0  0  0  0  0
   22.9246    9.2946   24.4207 N   0  0  0  0  0  0  0  0  0  0  0  0
   22.8822   11.4015   23.4887 N   0  0  0  0  0  0  0  0  0  0  0  0
   23.1205   12.1432   24.7043 C   0  0  0  0  0  0  0  0  0  0  0  0
   22.5523   11.9810   22.2833 C   0  0  0  0  0  0  0  0  0  0  0  0
   22.4421   13.1823   22.0652 O   0  0  0  0  0  0  0  0  0  0  0  0
   22.5798    8.7117   21.8248 H   0  0  0  0  0  0  0  0  0  0  0  0
   22.8630    8.3176   24.3157 H   0  0  0  0  0  0  0  0  0  0  0  0
   20.8218   10.6941   20.8033 C   0  0  0  0  0  0  0  0  0  0  0  0
   20.0522    9.5777   21.2039 C   0  0  0  0  0  0  0  0  0  0  0  0
   18.7162    9.4462   20.8195 C   0  0  0  0  0  0  0  0  0  0  0  0
   18.1302   10.4303   20.0372 C   0  0  0  0  0  0  0  0  0  0  0  0
   16.8485   10.3065   19.6695 F   0  0  0  0  0  0  0  0  0  0  0  0
   18.8550   11.5430   19.6338 C   0  0  0  0  0  0  0  0  0  0  0  0
   20.1931   11.6780   20.0163 C   0  0  0  0  0  0  0  0  0  0  0  0
   25.1884   12.0877   19.0665 C   0  0  0  0  0  0  0  0  0  0  0  0
   25.1578   11.1586   18.0175 C   0  0  0  0  0  0  0  0  0  0  0  0
   24.2226   10.1237   18.0033 C   0  0  0  0  0  0  0  0  0  0  0  0
   23.2960    9.9996   19.0387 C   0  0  0  0  0  0  0  0  0  0  0  0
   23.2852   10.9116   20.1066 C   0  0  0  0  0  0  0  0  0  0  0  0
   24.2457   11.9468   20.1002 C   0  0  0  0  0  0  0  0  0  0  0  0
   27.0780   15.2516   18.1655 C   0  0  0  0  0  0  0  0  0  0  0  0
   28.0765   15.2484   19.1405 C   0  0  0  0  0  0  0  0  0  0  0  0
   28.1381   14.2282   20.0872 C   0  0  0  0  0  0  0  0  0  0  0  0
   27.1963   13.1998   20.0620 C   0  0  0  0  0  0  0  0  0  0  0  0
   26.1816   13.1752   19.0915 C   0  0  0  0  0  0  0  0  0  0  0  0
   26.1377   14.2174   18.1448 C   0  0  0  0  0  0  0  0  0  0  0  0
   28.2338   16.3595   16.4067 C   0  0  0  0  0  0  0  0  0  0  0  0
   27.1295   16.3107   17.3008 O   0  0  0  0  0  0  0  0  0  0  0  0
 30 31  1  0
 31 24  1  0
 24 25  2  0
 25 26  1  0
 26 27  2  0
 27 28  1  0
 28 18  1  0
 18 19  2  0
 19 20  1  0
 20 21  2  0
 21 22  1  0
  1 22  1  0
  1 11  1  0
 11 12  2  0
 12 13  1  0
 13 14  2  0
 14 15  1  0
 14 16  1  0
 16 17  2  0
  1  2  1  0
  2  3  1  0
  3  4  2  0
  3  5  1  0
  5  6  1  0
  5  7  1  0
  7  8  2  0
 22 23  2  0
 28 29  2  0
 29 24  1  0
 23 18  1  0
  7  1  1  0
 17 11  1  0
  2  9  1  0
  4 10  1  0
M  END
> <minimizedAffinity>
-9.09721

> <CNNscore>
0.9601238370

> <CNNaffinity>
6.8416399956

> <CNN_VS>
6.5688214302

> <CNNaffinity_variance>
0.0621996373

$$$$



 31 34  0  0  0  0  0  0  0  0999 V2000
   23.0552   11.9556   22.2963 C   0  0  0  0  0  0  0  0  0  0  0  0
   23.5062   10.8192   23.1228 N   0  0  0  0  0  0  0  0  0  0  0  0
   22.4397   10.2217   23.7093 C   0  0  0  0  0  0  0  0  0  0  0  0
   22.4626    9.1193   24.3574 N   0  0  0  0  0  0  0  0  0  0  0  0
   21.3013   10.9203   23.5107 N   0  0  0  0  0  0  0  0  0  0  0  0
   19.9972   10.5437   24.0025 C   0  0  0  0  0  0  0  0  0  0  0  0
   21.5265   11.9681   22.6451 C   0  0  0  0  0  0  0  0  0  0  0  0
   20.6778   12.7315   22.1983 O   0  0  0  0  0  0  0  0  0  0  0  0
   24.4430   10.5368   23.2323 H   0  0  0  0  0  0  0  0  0  0  0  0
   23.3129    8.6387   24.4813 H   0  0  0  0  0  0  0  0  0  0  0  0
   23.3736   11.6065   20.8289 C   0  0  0  0  0  0  0  0  0  0  0  0
   23.8411   10.3116   20.5064 C   0  0  0  0  0  0  0  0  0  0  0  0
   24.1182    9.9521   19.1859 C   0  0  0  0  0  0  0  0  0  0  0  0
   23.9252   10.8774   18.1708 C   0  0  0  0  0  0  0  0  0  0  0  0
   24.1887   10.5333   16.9038 F   0  0  0  0  0  0  0  0  0  0  0  0
   23.4595   12.1542   18.4521 C   0  0  0  0  0  0  0  0  0  0  0  0
   23.1814   12.5181   19.7732 C   0  0  0  0  0  0  0  0  0  0  0  0
   23.4158   15.4824   23.8233 C   0  0  0  0  0  0  0  0  0  0  0  0
   24.7844   15.7189   23.6346 C   0  0  0  0  0  0  0  0  0  0  0  0
   25.6000   14.7641   23.0274 C   0  0  0  0  0  0  0  0  0  0  0  0
   25.0609   13.5528   22.5936 C   0  0  0  0  0  0  0  0  0  0  0  0
   23.6937   13.2755   22.7557 C   0  0  0  0  0  0  0  0  0  0  0  0
   22.8907   14.2563   23.3782 C   0  0  0  0  0  0  0  0  0  0  0  0
   22.2449   18.2862   26.0950 C   0  0  0  0  0  0  0  0  0  0  0  0
   20.9062   18.3909   25.7151 C   0  0  0  0  0  0  0  0  0  0  0  0
   20.3836   17.5594   24.7268 C   0  0  0  0  0  0  0  0  0  0  0  0
   21.2027   16.6131   24.1112 C   0  0  0  0  0  0  0  0  0  0  0  0
   22.5530   16.4831   24.4744 C   0  0  0  0  0  0  0  0  0  0  0  0
   23.0602   17.3349   25.4751 C   0  0  0  0  0  0  0  0  0  0  0  0
   21.6628   20.1106   27.5055 C   0  0  0  0  0  0  0  0  0  0  0  0
   22.6299   19.1628   27.0724 O   0  0  0  0  0  0  0  0  0  0  0  0
 30 31  1  0
 31 24  1  0
 24 25  2  0
 25 26  1  0
 26 27  2  0
 27 28  1  0
 28 18  1  0
 18 19  2  0
 19 20  1  0
 20 21  2  0
 21 22  1  0
  1 22  1  0
  1 11  1  0
 11 12  2  0
 12 13  1  0
 13 14  2  0
 14 15  1  0
 14 16  1  0
 16 17  2  0
  1  2  1  0
  2  3  1  0
  3  4  2  0
  3  5  1  0
  5  6  1  0
  5  7  1  0
  7  8  2  0
 22 23  2  0
 28 29  2  0
 29 24  1  0
 23 18  1  0
  7  1  1  0
 17 11  1  0
  2  9  1  0
  4 10  1  0
M  END
> <minimizedAffinity>
-8.08771

> <CNNscore>
0.7600619197

> <CNNaffinity>
6.2903370857

> <CNN_VS>
4.7810459137

> <CNNaffinity_variance>
0.0543231964

$$$$



 31 34  0  0  0  0  0  0  0  0999 V2000
   18.6561   11.1816   23.8220 C   0  0  0  0  0  0  0  0  0  0  0  0
   19.6091   10.2083   24.3899 N   0  0  0  0  0  0  0  0  0  0  0  0
   20.4128   10.8211   25.2938 C   0  0  0  0  0  0  0  0  0  0  0  0
   21.2360   10.2376   26.0797 N   0  0  0  0  0  0  0  0  0  0  0  0
   20.2314   12.1593   25.3004 N   0  0  0  0  0  0  0  0  0  0  0  0
   20.9321   13.0899   26.1532 C   0  0  0  0  0  0  0  0  0  0  0  0
   19.1758   12.5041   24.4852 C   0  0  0  0  0  0  0  0  0  0  0  0
   18.7062   13.6281   24.3476 O   0  0  0  0  0  0  0  0  0  0  0  0
   19.6545    9.2550   24.1482 H   0  0  0  0  0  0  0  0  0  0  0  0
   21.3405    9.2593   26.0450 H   0  0  0  0  0  0  0  0  0  0  0  0
   17.2450   10.7527   24.2706 C   0  0  0  0  0  0  0  0  0  0  0  0
   16.2682   11.7399   24.5367 C   0  0  0  0  0  0  0  0  0  0  0  0
   14.9732   11.3886   24.9230 C   0  0  0  0  0  0  0  0  0  0  0  0
   14.6352   10.0486   25.0416 C   0  0  0  0  0  0  0  0  0  0  0  0
   13.3930    9.7104   25.4101 F   0  0  0  0  0  0  0  0  0  0  0  0
   15.5676    9.0545   24.7797 C   0  0  0  0  0  0  0  0  0  0  0  0
   16.8655    9.4024   24.3930 C   0  0  0  0  0  0  0  0  0  0  0  0
   20.2714   11.2313   20.3165 C   0  0  0  0  0  0  0  0  0  0  0  0
   19.1500   11.4571   19.5064 C   0  0  0  0  0  0  0  0  0  0  0  0
   17.8782   11.5911   20.0636 C   0  0  0  0  0  0  0  0  0  0  0  0
   17.7035   11.5047   21.4449 C   0  0  0  0  0  0  0  0  0  0  0  0
   18.7993   11.2863   22.2957 C   0  0  0  0  0  0  0  0  0  0  0  0
   20.0752   11.1486   21.7064 C   0  0  0  0  0  0  0  0  0  0  0  0
   23.6037   12.0529   18.6998 C   0  0  0  0  0  0  0  0  0  0  0  0
   24.1758   10.7828   18.6163 C   0  0  0  0  0  0  0  0  0  0  0  0
   23.4880    9.6645   19.0825 C   0  0  0  0  0  0  0  0  0  0  0  0
   22.2166    9.8125   19.6365 C   0  0  0  0  0  0  0  0  0  0  0  0
   21.6145   11.0776   19.7316 C   0  0  0  0  0  0  0  0  0  0  0  0
   22.3286   12.1945   19.2550 C   0  0  0  0  0  0  0  0  0  0  0  0
   24.4967   14.2359   19.0060 C   0  0  0  0  0  0  0  0  0  0  0  0
   24.3854   13.0633   18.2099 O   0  0  0  0  0  0  0  0  0  0  0  0
 30 31  1  0
 31 24  1  0
 24 25  2  0
 25 26  1  0
 26 27  2  0
 27 28  1  0
 28 18  1  0
 18 19  2  0
 19 20  1  0
 20 21  2  0
 21 22  1  0
  1 22  1  0
  1 11  1  0
 11 12  2  0
 12 13  1  0
 13 14  2  0
 14 15  1  0
 14 16  1  0
 16 17  2  0
  1  2  1  0
  2  3  1  0
  3  4  2  0
  3  5  1  0
  5  6  1  0
  5  7  1  0
  7  8  2  0
 22 23  2  0
 28 29  2  0
 29 24  1  0
 23 18  1  0
  7  1  1  0
 17 11  1  0
  2  9  1  0
  4 10  1  0
M  END
> <minimizedAffinity>
-9.11242

> <CNNscore>
0.6405522227

> <CNNaffinity>
5.8821644783

> <CNN_VS>
3.7678334713

> <CNNaffinity_variance>
0.2518439591

$$$$



 31 34  0  0  0  0  0  0  0  0999 V2000
   26.0395   12.6358   19.1953 C   0  0  0  0  0  0  0  0  0  0  0  0
   26.4072   13.0260   17.8203 N   0  0  0  0  0  0  0  0  0  0  0  0
   26.3741   14.3759   17.6979 C   0  0  0  0  0  0  0  0  0  0  0  0
   26.7896   15.0463   16.6911 N   0  0  0  0  0  0  0  0  0  0  0  0
   25.8627   14.9671   18.7991 N   0  0  0  0  0  0  0  0  0  0  0  0
   25.7005   16.3902   18.9804 C   0  0  0  0  0  0  0  0  0  0  0  0
   25.6537   14.0341   19.7909 C   0  0  0  0  0  0  0  0  0  0  0  0
   25.2827   14.2673   20.9358 O   0  0  0  0  0  0  0  0  0  0  0  0
   26.6419   12.3988   17.0987 H   0  0  0  0  0  0  0  0  0  0  0  0
   27.1561   14.5790   15.9059 H   0  0  0  0  0  0  0  0  0  0  0  0
   27.2849   11.9900   19.8342 C   0  0  0  0  0  0  0  0  0  0  0  0
   28.1444   12.7766   20.6354 C   0  0  0  0  0  0  0  0  0  0  0  0
   29.2691   12.2210   21.2487 C   0  0  0  0  0  0  0  0  0  0  0  0
   29.5456   10.8728   21.0761 C   0  0  0  0  0  0  0  0  0  0  0  0
   30.6228   10.3383   21.6653 F   0  0  0  0  0  0  0  0  0  0  0  0
   28.7179   10.0707   20.3030 C   0  0  0  0  0  0  0  0  0  0  0  0
   27.5910   10.6236   19.6869 C   0  0  0  0  0  0  0  0  0  0  0  0
   22.4614   11.3635   19.8874 C   0  0  0  0  0  0  0  0  0  0  0  0
   22.5017   10.1018   19.2781 C   0  0  0  0  0  0  0  0  0  0  0  0
   23.6581    9.6489   18.6428 C   0  0  0  0  0  0  0  0  0  0  0  0
   24.7999   10.4495   18.6073 C   0  0  0  0  0  0  0  0  0  0  0  0
   24.8074   11.7178   19.2105 C   0  0  0  0  0  0  0  0  0  0  0  0
   23.6226   12.1552   19.8422 C   0  0  0  0  0  0  0  0  0  0  0  0
   18.8254   11.7194   20.9099 C   0  0  0  0  0  0  0  0  0  0  0  0
   18.9087   12.7807   21.8123 C   0  0  0  0  0  0  0  0  0  0  0  0
   20.1359   13.3784   22.0910 C   0  0  0  0  0  0  0  0  0  0  0  0
   21.2922   12.9151   21.4636 C   0  0  0  0  0  0  0  0  0  0  0  0
   21.2390   11.8505   20.5492 C   0  0  0  0  0  0  0  0  0  0  0  0
   19.9878   11.2605   20.2835 C   0  0  0  0  0  0  0  0  0  0  0  0
   17.4410    9.8140   20.5794 C   0  0  0  0  0  0  0  0  0  0  0  0
   17.5635   11.2224   20.7298 O   0  0  0  0  0  0  0  0  0  0  0  0
 30 31  1  0
 31 24  1  0
 24 25  2  0
 25 26  1  0
 26 27  2  0
 27 28  1  0
 28 18  1  0
 18 19  2  0
 19 20  1  0
 20 21  2  0
 21 22  1  0
  1 22  1  0
  1 11  1  0
 11 12  2  0
 12 13  1  0
 13 14  2  0
 14 15  1  0
 14 16  1  0
 16 17  2  0
  1  2  1  0
  2  3  1  0
  3  4  2  0
  3  5  1  0
  5  6  1  0
  5  7  1  0
  7  8  2  0
 22 23  2  0
 28 29  2  0
 29 24  1  0
 23 18  1  0
  7  1  1  0
 17 11  1  0
  2  9  1  0
  4 10  1  0
M  END
> <minimizedAffinity>
-10.06489

> <CNNscore>
0.5933013558

> <CNNaffinity>
5.9076285362

> <CNN_VS>
3.5050039291

> <CNNaffinity_variance>
0.4798544347

$$$$



 31 34  0  0  0  0  0  0  0  0999 V2000
   21.0295   11.0655   21.6546 C   0  0  0  0  0  0  0  0  0  0  0  0
   21.9248   10.0354   22.2162 N   0  0  0  0  0  0  0  0  0  0  0  0
   23.0159    9.8894   21.4247 C   0  0  0  0  0  0  0  0  0  0  0  0
   24.0560    9.1995   21.7041 N   0  0  0  0  0  0  0  0  0  0  0  0
   22.9019   10.5938   20.2782 N   0  0  0  0  0  0  0  0  0  0  0  0
   23.8965   10.6494   19.2331 C   0  0  0  0  0  0  0  0  0  0  0  0
   21.7677   11.3752   20.3063 C   0  0  0  0  0  0  0  0  0  0  0  0
   21.4316   12.1919   19.4562 O   0  0  0  0  0  0  0  0  0  0  0  0
   21.7549    9.5291   23.0433 H   0  0  0  0  0  0  0  0  0  0  0  0
   24.1019    8.6990   22.5507 H   0  0  0  0  0  0  0  0  0  0  0  0
   21.0025   12.2394   22.6534 C   0  0  0  0  0  0  0  0  0  0  0  0
   20.3879   13.4572   22.2810 C   0  0  0  0  0  0  0  0  0  0  0  0
   20.3243   14.5345   23.1671 C   0  0  0  0  0  0  0  0  0  0  0  0
   20.8665   14.4073   24.4375 C   0  0  0  0  0  0  0  0  0  0  0  0
   20.8044   15.4390   25.2889 F   0  0  0  0  0  0  0  0  0  0  0  0
   21.4694   13.2231   24.8377 C   0  0  0  0  0  0  0  0  0  0  0  0
   21.5355   12.1423   23.9530 C   0  0  0  0  0  0  0  0  0  0  0  0
   17.3448   10.0230   22.1409 C   0  0  0  0  0  0  0  0  0  0  0  0
   17.0497    9.4816   20.8821 C   0  0  0  0  0  0  0  0  0  0  0  0
   18.0123    9.4466   19.8731 C   0  0  0  0  0  0  0  0  0  0  0  0
   19.2921    9.9508   20.1050 C   0  0  0  0  0  0  0  0  0  0  0  0
   19.6344   10.4964   21.3530 C   0  0  0  0  0  0  0  0  0  0  0  0
   18.6405   10.5250   22.3558 C   0  0  0  0  0  0  0  0  0  0  0  0
   14.3443   11.0973   24.1990 C   0  0  0  0  0  0  0  0  0  0  0  0
   14.3900   10.1655   25.2369 C   0  0  0  0  0  0  0  0  0  0  0  0
   15.3860    9.1920   25.2709 C   0  0  0  0  0  0  0  0  0  0  0  0
   16.3473    9.1467   24.2613 C   0  0  0  0  0  0  0  0  0  0  0  0
   16.3281   10.0725   23.2056 C   0  0  0  0  0  0  0  0  0  0  0  0
   15.3113   11.0473   23.1908 C   0  0  0  0  0  0  0  0  0  0  0  0
   13.4946   13.1001   25.1600 C   0  0  0  0  0  0  0  0  0  0  0  0
   13.3151   11.9948   24.2840 O   0  0  0  0  0  0  0  0  0  0  0  0
 30 31  1  0
 31 24  1  0
 24 25  2  0
 25 26  1  0
 26 27  2  0
 27 28  1  0
 28 18  1  0
 18 19  2  0
 19 20  1  0
 20 21  2  0
 21 22  1  0
  1 22  1  0
  1 11  1  0
 11 12  2  0
 12 13  1  0
 13 14  2  0
 14 15  1  0
 14 16  1  0
 16 17  2  0
  1  2  1  0
  2  3  1  0
  3  4  2  0
  3  5  1  0
  5  6  1  0
  5  7  1  0
  7  8  2  0
 22 23  2  0
 28 29  2  0
 29 24  1  0
 23 18  1  0
  7  1  1  0
 17 11  1  0
  2  9  1  0
  4 10  1  0
M  END
> <minimizedAffinity>
-8.27162

> <CNNscore>
0.5439778566

> <CNNaffinity>
6.2644729614

> <CNN_VS>
3.4077346325

> <CNNaffinity_variance>
0.0766735747

$$$$



 31 34  0  0  0  0  0  0  0  0999 V2000
   26.0467   12.5699   19.2193 C   0  0  0  0  0  0  0  0  0  0  0  0
   26.4092   12.9726   17.8465 N   0  0  0  0  0  0  0  0  0  0  0  0
   26.3493   14.3221   17.7292 C   0  0  0  0  0  0  0  0  0  0  0  0
   26.7533   15.0045   16.7257 N   0  0  0  0  0  0  0  0  0  0  0  0
   25.8243   14.8987   18.8317 N   0  0  0  0  0  0  0  0  0  0  0  0
   25.6335   16.3176   19.0181 C   0  0  0  0  0  0  0  0  0  0  0  0
   25.6321   13.9579   19.8195 C   0  0  0  0  0  0  0  0  0  0  0  0
   25.2544   14.1792   20.9646 O   0  0  0  0  0  0  0  0  0  0  0  0
   26.6576   12.3530   17.1229 H   0  0  0  0  0  0  0  0  0  0  0  0
   27.1305   14.5475   15.9395 H   0  0  0  0  0  0  0  0  0  0  0  0
   27.3035   11.9465   19.8581 C   0  0  0  0  0  0  0  0  0  0  0  0
   28.2279   12.7775   20.5322 C   0  0  0  0  0  0  0  0  0  0  0  0
   29.3656   12.2456   21.1424 C   0  0  0  0  0  0  0  0  0  0  0  0
   29.5911   10.8779   21.0937 C   0  0  0  0  0  0  0  0  0  0  0  0
   30.6808   10.3663   21.6802 F   0  0  0  0  0  0  0  0  0  0  0  0
   28.6995   10.0331   20.4475 C   0  0  0  0  0  0  0  0  0  0  0  0
   27.5592   10.5621   19.8349 C   0  0  0  0  0  0  0  0  0  0  0  0
   22.5941   11.0965   20.1185 C   0  0  0  0  0  0  0  0  0  0  0  0
   22.5663    9.9577   19.3018 C   0  0  0  0  0  0  0  0  0  0  0  0
   23.6364    9.6521   18.4608 C   0  0  0  0  0  0  0  0  0  0  0  0
   24.7588   10.4797   18.4227 C   0  0  0  0  0  0  0  0  0  0  0  0
   24.8332   11.6274   19.2286 C   0  0  0  0  0  0  0  0  0  0  0  0
   23.7344   11.9175   20.0670 C   0  0  0  0  0  0  0  0  0  0  0  0
   20.2036   11.0736   23.0644 C   0  0  0  0  0  0  0  0  0  0  0  0
   19.3009   12.0653   22.6782 C   0  0  0  0  0  0  0  0  0  0  0  0
   19.4647   12.7406   21.4707 C   0  0  0  0  0  0  0  0  0  0  0  0
   20.5383   12.4241   20.6385 C   0  0  0  0  0  0  0  0  0  0  0  0
   21.4614   11.4293   20.9994 C   0  0  0  0  0  0  0  0  0  0  0  0
   21.2769   10.7603   22.2253 C   0  0  0  0  0  0  0  0  0  0  0  0
   20.3690   11.1837   25.4344 C   0  0  0  0  0  0  0  0  0  0  0  0
   19.9294   10.4926   24.2724 O   0  0  0  0  0  0  0  0  0  0  0  0
 30 31  1  0
 31 24  1  0
 24 25  2  0
 25 26  1  0
 26 27  2  0
 27 28  1  0
 28 18  1  0
 18 19  2  0
 19 20  1  0
 20 21  2  0
 21 22  1  0
  1 22  1  0
  1 11  1  0
 11 12  2  0
 12 13  1  0
 13 14  2  0
 14 15  1  0
 14 16  1  0
 16 17  2  0
  1  2  1  0
  2  3  1  0
  3  4  2  0
  3  5  1  0
  5  6  1  0
  5  7  1  0
  7  8  2  0
 22 23  2  0
 28 29  2  0
 29 24  1  0
 23 18  1  0
  7  1  1  0
 17 11  1  0
  2  9  1  0
  4 10  1  0
M  END
> <minimizedAffinity>
-9.42327

> <CNNscore>
0.5344692469

> <CNNaffinity>
5.9371409416

> <CNN_VS>
3.1732192039

> <CNNaffinity_variance>
0.3542853892

$$$$



 31 34  0  0  0  0  0  0  0  0999 V2000
   22.1349   12.3292   21.6909 C   0  0  0  0  0  0  0  0  0  0  0  0
   22.8790   11.3627   22.5217 N   0  0  0  0  0  0  0  0  0  0  0  0
   22.9563   11.8130   23.7983 C   0  0  0  0  0  0  0  0  0  0  0  0
   23.3915   11.1489   24.8009 N   0  0  0  0  0  0  0  0  0  0  0  0
   22.4849   13.0731   23.9151 N   0  0  0  0  0  0  0  0  0  0  0  0
   22.4264   13.8292   25.1437 C   0  0  0  0  0  0  0  0  0  0  0  0
   21.9267   13.4883   22.7261 C   0  0  0  0  0  0  0  0  0  0  0  0
   21.3369   14.5460   22.5352 O   0  0  0  0  0  0  0  0  0  0  0  0
   23.2625   10.5161   22.1970 H   0  0  0  0  0  0  0  0  0  0  0  0
   23.7274   10.2320   24.6756 H   0  0  0  0  0  0  0  0  0  0  0  0
   20.8352   11.6350   21.2379 C   0  0  0  0  0  0  0  0  0  0  0  0
   19.7359   12.4193   20.8185 C   0  0  0  0  0  0  0  0  0  0  0  0
   18.5507   11.8254   20.3801 C   0  0  0  0  0  0  0  0  0  0  0  0
   18.4505   10.4424   20.3479 C   0  0  0  0  0  0  0  0  0  0  0  0
   17.3151    9.8715   19.9258 F   0  0  0  0  0  0  0  0  0  0  0  0
   19.5136    9.6433   20.7447 C   0  0  0  0  0  0  0  0  0  0  0  0
   20.7020   10.2343   21.1848 C   0  0  0  0  0  0  0  0  0  0  0  0
   24.6625   14.4480   19.6854 C   0  0  0  0  0  0  0  0  0  0  0  0
   24.5911   13.8333   18.4277 C   0  0  0  0  0  0  0  0  0  0  0  0
   23.7470   12.7447   18.2085 C   0  0  0  0  0  0  0  0  0  0  0  0
   22.9540   12.2506   19.2444 C   0  0  0  0  0  0  0  0  0  0  0  0
   22.9877   12.8394   20.5190 C   0  0  0  0  0  0  0  0  0  0  0  0
   23.8546   13.9366   20.7164 C   0  0  0  0  0  0  0  0  0  0  0  0
   27.0545   16.8431   21.3985 C   0  0  0  0  0  0  0  0  0  0  0  0
   27.2740   17.7700   20.3785 C   0  0  0  0  0  0  0  0  0  0  0  0
   26.6527   17.6208   19.1405 C   0  0  0  0  0  0  0  0  0  0  0  0
   25.8028   16.5378   18.9163 C   0  0  0  0  0  0  0  0  0  0  0  0
   25.5609   15.5905   19.9244 C   0  0  0  0  0  0  0  0  0  0  0  0
   26.2006   15.7606   21.1678 C   0  0  0  0  0  0  0  0  0  0  0  0
   28.1429   18.4473   22.7764 C   0  0  0  0  0  0  0  0  0  0  0  0
   27.7271   17.1050   22.5608 O   0  0  0  0  0  0  0  0  0  0  0  0
 30 31  1  0
 31 24  1  0
 24 25  2  0
 25 26  1  0
 26 27  2  0
 27 28  1  0
 28 18  1  0
 18 19  2  0
 19 20  1  0
 20 21  2  0
 21 22  1  0
  1 22  1  0
  1 11  1  0
 11 12  2  0
 12 13  1  0
 13 14  2  0
 14 15  1  0
 14 16  1  0
 16 17  2  0
  1  2  1  0
  2  3  1  0
  3  4  2  0
  3  5  1  0
  5  6  1  0
  5  7  1  0
  7  8  2  0
 22 23  2  0
 28 29  2  0
 29 24  1  0
 23 18  1  0
  7  1  1  0
 17 11  1  0
  2  9  1  0
  4 10  1  0
M  END
> <minimizedAffinity>
-8.45135

> <CNNscore>
0.5272707343

> <CNNaffinity>
5.8524785042

> <CNN_VS>
3.0858407021

> <CNNaffinity_variance>
0.3487283289

$$$$
