


 35 37  0  0  0  0  0  0  0  0999 V2000
   47.3203    9.7606   -0.1624 C   0  0  0  0  0  0  0  0  0  0  0  0
   46.2465    9.0263   -0.6735 C   0  0  0  0  0  0  0  0  0  0  0  0
   44.9432    9.5273   -0.6146 C   0  0  0  0  0  0  0  0  0  0  0  0
   43.5125    8.4904   -1.2931 Br  0  0  0  0  0  0  0  0  0  0  0  0
   44.6828   10.7807   -0.0705 C   0  0  0  0  0  0  0  0  0  0  0  0
   45.7403   11.5547    0.4118 C   0  0  0  0  0  0  0  0  0  0  0  0
   47.0470   11.0416    0.3467 C   0  0  0  0  0  0  0  0  0  0  0  0
   45.4852   12.8892    0.9585 C   0  0  0  0  0  0  0  0  0  0  0  0
   44.5311   13.9903    0.0587 S   0  0  0  0  0  0  0  0  0  0  0  0
   44.6310   15.2112    1.2704 C   0  0  0  0  0  0  0  0  0  0  0  0
   45.4977   14.8237    2.2810 C   0  0  0  0  0  0  0  0  0  0  0  0
   45.9033   13.4644    2.1379 C   0  0  0  0  0  0  0  0  0  0  0  0
   46.8961   12.5645    3.4825 Br  0  0  0  0  0  0  0  0  0  0  0  0
   43.8300   16.3985    1.0761 C   0  0  0  0  0  0  0  0  0  0  0  0
   43.5717   17.2821    1.8820 O   0  0  0  0  0  0  0  0  0  0  0  0
   43.3486   16.5047   -0.1821 O   0  0  0  0  0  0  0  0  0  0  0  0
   43.5359   15.8379   -0.8132 H   0  0  0  0  0  0  0  0  0  0  0  0
   45.8179   15.5859    3.3592 O   0  0  0  0  0  0  0  0  0  0  0  0
   47.1531   16.0809    3.3290 C   0  0  0  0  0  0  0  0  0  0  0  0
   47.5883   16.9490    4.5025 C   0  0  0  0  0  0  0  0  0  0  0  0
   46.9218   17.3427    5.4432 O   0  0  0  0  0  0  0  0  0  0  0  0
   48.9000   17.2713    4.4289 O   0  0  0  0  0  0  0  0  0  0  0  0
   49.4166   16.9708    3.7072 H   0  0  0  0  0  0  0  0  0  0  0  0
   48.6527    9.3554   -0.2473 N   0  0  0  0  0  0  0  0  0  0  0  0
   49.2190    9.7374   -0.9562 H   0  0  0  0  0  0  0  0  0  0  0  0
   48.2136    5.0215    0.7235 C   0  0  0  0  0  0  0  0  0  0  0  0
   49.5361    5.7989    0.8696 C   0  0  0  0  0  0  0  0  0  0  0  0
   50.6642    4.8519    0.4041 C   0  0  0  0  0  0  0  0  0  0  0  0
   49.5229    7.0518   -0.0457 C   0  0  0  0  0  0  0  0  0  0  0  0
   49.2426    8.3828    0.6779 C   0  0  0  0  0  0  0  0  0  0  0  0
   48.2746    8.1872    1.8511 C   0  0  0  0  0  0  0  0  0  0  0  0
   48.8631    7.2660    2.9437 C   0  0  0  0  0  0  0  0  0  0  0  0
   47.7157    6.6141    3.7388 C   0  0  0  0  0  0  0  0  0  0  0  0
   49.6774    8.1157    3.9465 C   0  0  0  0  0  0  0  0  0  0  0  0
   49.8060    6.1886    2.3425 C   0  0  0  0  0  0  0  0  0  0  0  0
 26 27  1  0
 27 28  1  0
 27 29  1  0
 29 30  1  0
 30 24  1  0
 24  1  1  0
  1  2  2  0
  2  3  1  0
  3  4  1  0
  3  5  2  0
  5  6  1  0
  6  8  1  0
  8  9  1  0
  9 10  1  0
 10 14  1  0
 14 15  2  0
 14 16  1  0
 10 11  2  0
 11 18  1  0
 18 19  1  0
 19 20  1  0
 20 21  2  0
 20 22  1  0
 11 12  1  0
 12 13  1  0
  6  7  2  0
 30 31  1  0
 31 32  1  0
 32 33  1  0
 32 34  1  0
 32 35  1  0
 35 27  1  0
  7  1  1  0
 12  8  2  0
 24 25  1  0
 16 17  1  0
 22 23  1  0
M  END
> <minimizedAffinity>
-7.99206

> <CNNscore>
0.9303702712

> <CNNaffinity>
7.2298607826

> <CNN_VS>
6.7264475822

> <CNNaffinity_variance>
0.0404486544

$$$$



 35 37  0  0  0  0  0  0  0  0999 V2000
   45.0054   10.3846   -0.5974 C   0  0  0  0  0  0  0  0  0  0  0  0
   44.5115   10.7930   -1.8395 C   0  0  0  0  0  0  0  0  0  0  0  0
   44.1967   12.1331   -2.0800 C   0  0  0  0  0  0  0  0  0  0  0  0
   43.5044   12.6418   -3.7665 Br  0  0  0  0  0  0  0  0  0  0  0  0
   44.3914   13.1005   -1.0996 C   0  0  0  0  0  0  0  0  0  0  0  0
   44.9211   12.7292    0.1380 C   0  0  0  0  0  0  0  0  0  0  0  0
   45.2350   11.3789    0.3687 C   0  0  0  0  0  0  0  0  0  0  0  0
   45.1611   13.7414    1.1687 C   0  0  0  0  0  0  0  0  0  0  0  0
   44.3260   15.2339    1.0819 S   0  0  0  0  0  0  0  0  0  0  0  0
   45.0352   15.8217    2.5381 C   0  0  0  0  0  0  0  0  0  0  0  0
   45.9989   14.9386    3.0007 C   0  0  0  0  0  0  0  0  0  0  0  0
   45.9943   13.7174    2.2650 C   0  0  0  0  0  0  0  0  0  0  0  0
   47.0284   12.2179    2.7993 Br  0  0  0  0  0  0  0  0  0  0  0  0
   44.5421   17.0807    3.0488 C   0  0  0  0  0  0  0  0  0  0  0  0
   44.2567   18.0946    2.4263 O   0  0  0  0  0  0  0  0  0  0  0  0
   44.3735   17.0714    4.3895 O   0  0  0  0  0  0  0  0  0  0  0  0
   44.5865   16.3041    4.8832 H   0  0  0  0  0  0  0  0  0  0  0  0
   46.7631   15.1381    4.1063 O   0  0  0  0  0  0  0  0  0  0  0  0
   47.8268   16.0631    3.9027 C   0  0  0  0  0  0  0  0  0  0  0  0
   47.8757   17.2665    4.8351 C   0  0  0  0  0  0  0  0  0  0  0  0
   48.7067   18.1561    4.8828 O   0  0  0  0  0  0  0  0  0  0  0  0
   46.8191   17.2903    5.6795 O   0  0  0  0  0  0  0  0  0  0  0  0
   46.1775   16.6082    5.6464 H   0  0  0  0  0  0  0  0  0  0  0  0
   45.4042    9.0793   -0.3078 N   0  0  0  0  0  0  0  0  0  0  0  0
   44.7337    8.3596   -0.3498 H   0  0  0  0  0  0  0  0  0  0  0  0
   48.2746    5.7304   -0.9884 C   0  0  0  0  0  0  0  0  0  0  0  0
   48.7049    7.1983   -0.8012 C   0  0  0  0  0  0  0  0  0  0  0  0
   49.8668    7.4519   -1.7870 C   0  0  0  0  0  0  0  0  0  0  0  0
   47.5301    8.1483   -1.1551 C   0  0  0  0  0  0  0  0  0  0  0  0
   46.7826    8.7373    0.0566 C   0  0  0  0  0  0  0  0  0  0  0  0
   46.7388    7.7425    1.2228 C   0  0  0  0  0  0  0  0  0  0  0  0
   48.1501    7.4116    1.7589 C   0  0  0  0  0  0  0  0  0  0  0  0
   48.1295    6.0307    2.4417 C   0  0  0  0  0  0  0  0  0  0  0  0
   48.5413    8.4423    2.8430 C   0  0  0  0  0  0  0  0  0  0  0  0
   49.2197    7.4606    0.6342 C   0  0  0  0  0  0  0  0  0  0  0  0
 26 27  1  0
 27 28  1  0
 27 29  1  0
 29 30  1  0
 30 24  1  0
 24  1  1  0
  1  2  2  0
  2  3  1  0
  3  4  1  0
  3  5  2  0
  5  6  1  0
  6  8  1  0
  8  9  1  0
  9 10  1  0
 10 14  1  0
 14 15  2  0
 14 16  1  0
 10 11  2  0
 11 18  1  0
 18 19  1  0
 19 20  1  0
 20 21  2  0
 20 22  1  0
 11 12  1  0
 12 13  1  0
  6  7  2  0
 30 31  1  0
 31 32  1  0
 32 33  1  0
 32 34  1  0
 32 35  1  0
 35 27  1  0
  7  1  1  0
 12  8  2  0
 24 25  1  0
 16 17  1  0
 22 23  1  0
M  END
> <minimizedAffinity>
-8.65866

> <CNNscore>
0.8949942589

> <CNNaffinity>
6.9030785561

> <CNN_VS>
6.1782155037

> <CNNaffinity_variance>
0.0257904138

$$$$



 35 37  0  0  0  0  0  0  0  0999 V2000
   44.3521   12.3541   -2.3389 C   0  0  0  0  0  0  0  0  0  0  0  0
   44.2608   10.9973   -2.0161 C   0  0  0  0  0  0  0  0  0  0  0  0
   44.4708   10.5566   -0.7066 C   0  0  0  0  0  0  0  0  0  0  0  0
   44.3652    8.7078   -0.3151 Br  0  0  0  0  0  0  0  0  0  0  0  0
   44.7498   11.4582    0.3153 C   0  0  0  0  0  0  0  0  0  0  0  0
   44.8079   12.8241    0.0310 C   0  0  0  0  0  0  0  0  0  0  0  0
   44.5941   13.2563   -1.2890 C   0  0  0  0  0  0  0  0  0  0  0  0
   45.0693   13.7877    1.1023 C   0  0  0  0  0  0  0  0  0  0  0  0
   44.2437   15.2880    1.0939 S   0  0  0  0  0  0  0  0  0  0  0  0
   44.9770   15.8056    2.5647 C   0  0  0  0  0  0  0  0  0  0  0  0
   45.9406   14.8964    2.9739 C   0  0  0  0  0  0  0  0  0  0  0  0
   45.9172   13.7094    2.1847 C   0  0  0  0  0  0  0  0  0  0  0  0
   46.9478   12.1808    2.6370 Br  0  0  0  0  0  0  0  0  0  0  0  0
   44.4999   17.0436    3.1379 C   0  0  0  0  0  0  0  0  0  0  0  0
   44.2470   18.0972    2.5696 O   0  0  0  0  0  0  0  0  0  0  0  0
   44.3057   16.9617    4.4726 O   0  0  0  0  0  0  0  0  0  0  0  0
   44.4938   16.1631    4.9253 H   0  0  0  0  0  0  0  0  0  0  0  0
   46.7213   15.0413    4.0765 O   0  0  0  0  0  0  0  0  0  0  0  0
   47.7996   15.9538    3.8936 C   0  0  0  0  0  0  0  0  0  0  0  0
   47.8610   17.1410    4.8458 C   0  0  0  0  0  0  0  0  0  0  0  0
   48.7198   18.0008    4.9319 O   0  0  0  0  0  0  0  0  0  0  0  0
   46.7810   17.1884    5.6590 O   0  0  0  0  0  0  0  0  0  0  0  0
   46.1180   16.5293    5.5963 H   0  0  0  0  0  0  0  0  0  0  0  0
   44.0890   12.8733   -3.6069 N   0  0  0  0  0  0  0  0  0  0  0  0
   44.7480   13.4798   -4.0156 H   0  0  0  0  0  0  0  0  0  0  0  0
   39.8134   14.1507   -3.6769 C   0  0  0  0  0  0  0  0  0  0  0  0
   40.5765   13.6555   -4.9209 C   0  0  0  0  0  0  0  0  0  0  0  0
   40.1211   14.5378   -6.1042 C   0  0  0  0  0  0  0  0  0  0  0  0
   42.1040   13.8377   -4.7177 C   0  0  0  0  0  0  0  0  0  0  0  0
   42.8697   12.5509   -4.3547 C   0  0  0  0  0  0  0  0  0  0  0  0
   42.0118   11.6148   -3.4947 C   0  0  0  0  0  0  0  0  0  0  0  0
   40.7554   11.1214   -4.2475 C   0  0  0  0  0  0  0  0  0  0  0  0
   39.6647   10.7369   -3.2295 C   0  0  0  0  0  0  0  0  0  0  0  0
   41.1025    9.8393   -5.0388 C   0  0  0  0  0  0  0  0  0  0  0  0
   40.2305   12.1840   -5.2508 C   0  0  0  0  0  0  0  0  0  0  0  0
 26 27  1  0
 27 28  1  0
 27 29  1  0
 29 30  1  0
 30 24  1  0
 24  1  1  0
  1  2  2  0
  2  3  1  0
  3  4  1  0
  3  5  2  0
  5  6  1  0
  6  8  1  0
  8  9  1  0
  9 10  1  0
 10 14  1  0
 14 15  2  0
 14 16  1  0
 10 11  2  0
 11 18  1  0
 18 19  1  0
 19 20  1  0
 20 21  2  0
 20 22  1  0
 11 12  1  0
 12 13  1  0
  6  7  2  0
 30 31  1  0
 31 32  1  0
 32 33  1  0
 32 34  1  0
 32 35  1  0
 35 27  1  0
  7  1  1  0
 12  8  2  0
 24 25  1  0
 16 17  1  0
 22 23  1  0
M  END
> <minimizedAffinity>
-8.42682

> <CNNscore>
0.8774319291

> <CNNaffinity>
6.9009146690

> <CNN_VS>
6.0550827980

> <CNNaffinity_variance>
0.2239569575

$$$$



 35 37  0  0  0  0  0  0  0  0999 V2000
   44.5697   12.2823   -2.4844 C   0  0  0  0  0  0  0  0  0  0  0  0
   44.2972   10.9519   -2.1539 C   0  0  0  0  0  0  0  0  0  0  0  0
   44.3295   10.5229   -0.8243 C   0  0  0  0  0  0  0  0  0  0  0  0
   43.9814    8.7069   -0.4201 Br  0  0  0  0  0  0  0  0  0  0  0  0
   44.6072   11.4132    0.2079 C   0  0  0  0  0  0  0  0  0  0  0  0
   44.8441   12.7572   -0.0877 C   0  0  0  0  0  0  0  0  0  0  0  0
   44.8082   13.1780   -1.4281 C   0  0  0  0  0  0  0  0  0  0  0  0
   45.1065   13.7122    0.9911 C   0  0  0  0  0  0  0  0  0  0  0  0
   44.3031   15.2245    0.9794 S   0  0  0  0  0  0  0  0  0  0  0  0
   45.0260   15.7249    2.4613 C   0  0  0  0  0  0  0  0  0  0  0  0
   45.9711   14.7999    2.8780 C   0  0  0  0  0  0  0  0  0  0  0  0
   45.9400   13.6167    2.0832 C   0  0  0  0  0  0  0  0  0  0  0  0
   46.9426   12.0713    2.5410 Br  0  0  0  0  0  0  0  0  0  0  0  0
   44.5601   16.9673    3.0343 C   0  0  0  0  0  0  0  0  0  0  0  0
   44.2165   17.9896    2.4567 O   0  0  0  0  0  0  0  0  0  0  0  0
   44.4956   16.9295    4.3835 O   0  0  0  0  0  0  0  0  0  0  0  0
   44.7545   16.1553    4.8434 H   0  0  0  0  0  0  0  0  0  0  0  0
   46.7404   14.9285    3.9906 O   0  0  0  0  0  0  0  0  0  0  0  0
   47.7483   15.9279    3.8723 C   0  0  0  0  0  0  0  0  0  0  0  0
   47.7063   17.0659    4.8839 C   0  0  0  0  0  0  0  0  0  0  0  0
   46.8223   17.3467    5.6737 O   0  0  0  0  0  0  0  0  0  0  0  0
   48.8376   17.8070    4.8528 O   0  0  0  0  0  0  0  0  0  0  0  0
   49.5203   17.5947    4.2470 H   0  0  0  0  0  0  0  0  0  0  0  0
   44.4898   12.7962   -3.7791 N   0  0  0  0  0  0  0  0  0  0  0  0
   44.8959   12.2856   -4.5165 H   0  0  0  0  0  0  0  0  0  0  0  0
   43.9584   16.7968   -1.8739 C   0  0  0  0  0  0  0  0  0  0  0  0
   43.9982   16.5763   -3.3986 C   0  0  0  0  0  0  0  0  0  0  0  0
   44.7923   17.7571   -3.9995 C   0  0  0  0  0  0  0  0  0  0  0  0
   44.7397   15.2536   -3.7275 C   0  0  0  0  0  0  0  0  0  0  0  0
   43.8247   14.0666   -4.0847 C   0  0  0  0  0  0  0  0  0  0  0  0
   42.5083   14.1209   -3.3000 C   0  0  0  0  0  0  0  0  0  0  0  0
   41.6743   15.3746   -3.6486 C   0  0  0  0  0  0  0  0  0  0  0  0
   40.7413   15.7147   -2.4707 C   0  0  0  0  0  0  0  0  0  0  0  0
   40.7689   15.0663   -4.8634 C   0  0  0  0  0  0  0  0  0  0  0  0
   42.5772   16.5848   -4.0108 C   0  0  0  0  0  0  0  0  0  0  0  0
 26 27  1  0
 27 28  1  0
 27 29  1  0
 29 30  1  0
 30 24  1  0
 24  1  1  0
  1  2  2  0
  2  3  1  0
  3  4  1  0
  3  5  2  0
  5  6  1  0
  6  8  1  0
  8  9  1  0
  9 10  1  0
 10 14  1  0
 14 15  2  0
 14 16  1  0
 10 11  2  0
 11 18  1  0
 18 19  1  0
 19 20  1  0
 20 21  2  0
 20 22  1  0
 11 12  1  0
 12 13  1  0
  6  7  2  0
 30 31  1  0
 31 32  1  0
 32 33  1  0
 32 34  1  0
 32 35  1  0
 35 27  1  0
  7  1  1  0
 12  8  2  0
 24 25  1  0
 16 17  1  0
 22 23  1  0
M  END
> <minimizedAffinity>
-8.81801

> <CNNscore>
0.8543382287

> <CNNaffinity>
7.0593705177

> <CNN_VS>
6.0310902596

> <CNNaffinity_variance>
0.1550362855

$$$$



 35 37  0  0  0  0  0  0  0  0999 V2000
   44.2149   12.5837   -2.1978 C   0  0  0  0  0  0  0  0  0  0  0  0
   44.1611   11.2148   -1.9210 C   0  0  0  0  0  0  0  0  0  0  0  0
   44.4470   10.7307   -0.6416 C   0  0  0  0  0  0  0  0  0  0  0  0
   44.3900    8.8675   -0.3137 Br  0  0  0  0  0  0  0  0  0  0  0  0
   44.7664   11.5993    0.3968 C   0  0  0  0  0  0  0  0  0  0  0  0
   44.7889   12.9755    0.1606 C   0  0  0  0  0  0  0  0  0  0  0  0
   44.4988   13.4514   -1.1295 C   0  0  0  0  0  0  0  0  0  0  0  0
   45.0924   13.9040    1.2516 C   0  0  0  0  0  0  0  0  0  0  0  0
   44.2392   15.3857    1.3470 S   0  0  0  0  0  0  0  0  0  0  0  0
   45.0451   15.8638    2.7929 C   0  0  0  0  0  0  0  0  0  0  0  0
   46.0476   14.9608    3.1123 C   0  0  0  0  0  0  0  0  0  0  0  0
   46.0020   13.8036    2.2808 C   0  0  0  0  0  0  0  0  0  0  0  0
   47.0858   12.2816    2.6156 Br  0  0  0  0  0  0  0  0  0  0  0  0
   44.5779   17.0693    3.4389 C   0  0  0  0  0  0  0  0  0  0  0  0
   44.3511   17.2570    4.6265 O   0  0  0  0  0  0  0  0  0  0  0  0
   44.4078   18.0940    2.5745 O   0  0  0  0  0  0  0  0  0  0  0  0
   44.5764   17.9694    1.6613 H   0  0  0  0  0  0  0  0  0  0  0  0
   46.8870   15.0813    4.1739 O   0  0  0  0  0  0  0  0  0  0  0  0
   47.9279   16.0319    3.9705 C   0  0  0  0  0  0  0  0  0  0  0  0
   47.9169   17.2621    4.8687 C   0  0  0  0  0  0  0  0  0  0  0  0
   48.7028   18.1927    4.8904 O   0  0  0  0  0  0  0  0  0  0  0  0
   46.8603   17.2572    5.7133 O   0  0  0  0  0  0  0  0  0  0  0  0
   46.2532   16.5436    5.7002 H   0  0  0  0  0  0  0  0  0  0  0  0
   43.8771   13.1439   -3.4302 N   0  0  0  0  0  0  0  0  0  0  0  0
   43.9624   12.5909   -4.2403 H   0  0  0  0  0  0  0  0  0  0  0  0
   40.5051   15.3017   -5.4027 C   0  0  0  0  0  0  0  0  0  0  0  0
   41.1773   15.7779   -4.1003 C   0  0  0  0  0  0  0  0  0  0  0  0
   40.0525   16.3165   -3.1888 C   0  0  0  0  0  0  0  0  0  0  0  0
   41.8708   14.5851   -3.3904 C   0  0  0  0  0  0  0  0  0  0  0  0
   43.4002   14.5236   -3.5662 C   0  0  0  0  0  0  0  0  0  0  0  0
   43.8249   15.0454   -4.9443 C   0  0  0  0  0  0  0  0  0  0  0  0
   43.4701   16.5374   -5.1363 C   0  0  0  0  0  0  0  0  0  0  0  0
   43.3287   16.8423   -6.6399 C   0  0  0  0  0  0  0  0  0  0  0  0
   44.6306   17.4122   -4.6085 C   0  0  0  0  0  0  0  0  0  0  0  0
   42.1795   16.9265   -4.3656 C   0  0  0  0  0  0  0  0  0  0  0  0
 26 27  1  0
 27 28  1  0
 27 29  1  0
 29 30  1  0
 30 24  1  0
 24  1  1  0
  1  2  2  0
  2  3  1  0
  3  4  1  0
  3  5  2  0
  5  6  1  0
  6  8  1  0
  8  9  1  0
  9 10  1  0
 10 14  1  0
 14 15  2  0
 14 16  1  0
 10 11  2  0
 11 18  1  0
 18 19  1  0
 19 20  1  0
 20 21  2  0
 20 22  1  0
 11 12  1  0
 12 13  1  0
  6  7  2  0
 30 31  1  0
 31 32  1  0
 32 33  1  0
 32 34  1  0
 32 35  1  0
 35 27  1  0
  7  1  1  0
 12  8  2  0
 24 25  1  0
 16 17  1  0
 22 23  1  0
M  END
> <minimizedAffinity>
-8.51068

> <CNNscore>
0.8383027911

> <CNNaffinity>
6.9253697395

> <CNN_VS>
5.8055567741

> <CNNaffinity_variance>
0.1061762571

$$$$



 35 37  0  0  0  0  0  0  0  0999 V2000
   44.4865   10.5914   -0.6913 C   0  0  0  0  0  0  0  0  0  0  0  0
   44.3748   11.0890   -1.9927 C   0  0  0  0  0  0  0  0  0  0  0  0
   44.4583   12.4610   -2.2449 C   0  0  0  0  0  0  0  0  0  0  0  0
   44.2747   13.0976   -4.0179 Br  0  0  0  0  0  0  0  0  0  0  0  0
   44.6814   13.3656   -1.2121 C   0  0  0  0  0  0  0  0  0  0  0  0
   44.8372   12.8950    0.0934 C   0  0  0  0  0  0  0  0  0  0  0  0
   44.7524   11.5133    0.3355 C   0  0  0  0  0  0  0  0  0  0  0  0
   45.1041   13.8326    1.1862 C   0  0  0  0  0  0  0  0  0  0  0  0
   44.2436   15.3120    1.2442 S   0  0  0  0  0  0  0  0  0  0  0  0
   45.0031   15.8036    2.7105 C   0  0  0  0  0  0  0  0  0  0  0  0
   45.9983   14.9065    3.0673 C   0  0  0  0  0  0  0  0  0  0  0  0
   45.9819   13.7430    2.2435 C   0  0  0  0  0  0  0  0  0  0  0  0
   47.0598   12.2272    2.6229 Br  0  0  0  0  0  0  0  0  0  0  0  0
   44.5124   17.0123    3.3328 C   0  0  0  0  0  0  0  0  0  0  0  0
   44.3375   17.2384    4.5225 O   0  0  0  0  0  0  0  0  0  0  0  0
   44.2503   17.9916    2.4393 O   0  0  0  0  0  0  0  0  0  0  0  0
   44.3782   17.8372    1.5240 H   0  0  0  0  0  0  0  0  0  0  0  0
   46.8043   15.0377    4.1533 O   0  0  0  0  0  0  0  0  0  0  0  0
   47.8533   15.9839    3.9716 C   0  0  0  0  0  0  0  0  0  0  0  0
   47.8648   17.1823    4.9115 C   0  0  0  0  0  0  0  0  0  0  0  0
   48.6704   18.0945    4.9680 O   0  0  0  0  0  0  0  0  0  0  0  0
   46.8047   17.1713    5.7518 O   0  0  0  0  0  0  0  0  0  0  0  0
   46.1826   16.4718    5.7120 H   0  0  0  0  0  0  0  0  0  0  0  0
   44.4811    9.2331   -0.3728 N   0  0  0  0  0  0  0  0  0  0  0  0
   43.6510    8.8315   -0.0278 H   0  0  0  0  0  0  0  0  0  0  0  0
   48.5949    8.9258    1.3300 C   0  0  0  0  0  0  0  0  0  0  0  0
   47.7874    7.7139    0.8258 C   0  0  0  0  0  0  0  0  0  0  0  0
   48.0610    6.5549    1.8097 C   0  0  0  0  0  0  0  0  0  0  0  0
   46.2702    8.0390    0.8426 C   0  0  0  0  0  0  0  0  0  0  0  0
   45.6630    8.3801   -0.5317 C   0  0  0  0  0  0  0  0  0  0  0  0
   46.6722    9.1177   -1.4201 C   0  0  0  0  0  0  0  0  0  0  0  0
   47.9070    8.2469   -1.7449 C   0  0  0  0  0  0  0  0  0  0  0  0
   49.1065    9.1575   -2.0702 C   0  0  0  0  0  0  0  0  0  0  0  0
   47.6237    7.4084   -3.0127 C   0  0  0  0  0  0  0  0  0  0  0  0
   48.2464    7.2727   -0.5844 C   0  0  0  0  0  0  0  0  0  0  0  0
 26 27  1  0
 27 28  1  0
 27 29  1  0
 29 30  1  0
 30 24  1  0
 24  1  1  0
  1  2  2  0
  2  3  1  0
  3  4  1  0
  3  5  2  0
  5  6  1  0
  6  8  1  0
  8  9  1  0
  9 10  1  0
 10 14  1  0
 14 15  2  0
 14 16  1  0
 10 11  2  0
 11 18  1  0
 18 19  1  0
 19 20  1  0
 20 21  2  0
 20 22  1  0
 11 12  1  0
 12 13  1  0
  6  7  2  0
 30 31  1  0
 31 32  1  0
 32 33  1  0
 32 34  1  0
 32 35  1  0
 35 27  1  0
  7  1  1  0
 12  8  2  0
 24 25  1  0
 16 17  1  0
 22 23  1  0
M  END
> <minimizedAffinity>
-8.53841

> <CNNscore>
0.8088769317

> <CNNaffinity>
6.7768826485

> <CNN_VS>
5.4816641808

> <CNNaffinity_variance>
0.1479902714

$$$$



 35 37  0  0  0  0  0  0  0  0999 V2000
   47.3323    9.7483    1.7075 C   0  0  0  0  0  0  0  0  0  0  0  0
   46.5228    9.0403    0.8146 C   0  0  0  0  0  0  0  0  0  0  0  0
   45.4096    9.6439    0.2237 C   0  0  0  0  0  0  0  0  0  0  0  0
   44.3225    8.6432   -0.9592 Br  0  0  0  0  0  0  0  0  0  0  0  0
   45.0925   10.9725    0.4870 C   0  0  0  0  0  0  0  0  0  0  0  0
   45.9056   11.7173    1.3437 C   0  0  0  0  0  0  0  0  0  0  0  0
   47.0231   11.1007    1.9317 C   0  0  0  0  0  0  0  0  0  0  0  0
   45.6024   13.1259    1.6055 C   0  0  0  0  0  0  0  0  0  0  0  0
   44.6541   13.9982    0.4774 S   0  0  0  0  0  0  0  0  0  0  0  0
   44.6860   15.4380    1.4232 C   0  0  0  0  0  0  0  0  0  0  0  0
   45.5271   15.2844    2.5148 C   0  0  0  0  0  0  0  0  0  0  0  0
   45.9679   13.9360    2.6575 C   0  0  0  0  0  0  0  0  0  0  0  0
   46.9353   13.3506    4.1822 Br  0  0  0  0  0  0  0  0  0  0  0  0
   43.8654   16.5394    0.9732 C   0  0  0  0  0  0  0  0  0  0  0  0
   43.1706   16.6093   -0.0315 O   0  0  0  0  0  0  0  0  0  0  0  0
   43.8903   17.5911    1.8212 O   0  0  0  0  0  0  0  0  0  0  0  0
   44.4165   17.5561    2.5957 H   0  0  0  0  0  0  0  0  0  0  0  0
   45.7939   16.2547    3.4277 O   0  0  0  0  0  0  0  0  0  0  0  0
   47.1517   16.6847    3.4198 C   0  0  0  0  0  0  0  0  0  0  0  0
   47.6895   17.2784    4.7152 C   0  0  0  0  0  0  0  0  0  0  0  0
   48.8052   17.7097    4.9465 O   0  0  0  0  0  0  0  0  0  0  0  0
   46.7442   17.3120    5.6823 O   0  0  0  0  0  0  0  0  0  0  0  0
   45.8848   16.9815    5.5090 H   0  0  0  0  0  0  0  0  0  0  0  0
   48.4952    9.2337    2.2817 N   0  0  0  0  0  0  0  0  0  0  0  0
   49.1485    9.8602    2.6690 H   0  0  0  0  0  0  0  0  0  0  0  0
   51.5274    6.5250    4.1217 C   0  0  0  0  0  0  0  0  0  0  0  0
   50.0671    6.1131    3.8523 C   0  0  0  0  0  0  0  0  0  0  0  0
   49.6145    5.2598    5.0578 C   0  0  0  0  0  0  0  0  0  0  0  0
   49.1651    7.3725    3.7619 C   0  0  0  0  0  0  0  0  0  0  0  0
   48.7823    7.7968    2.3311 C   0  0  0  0  0  0  0  0  0  0  0  0
   49.9129    7.4982    1.3390 C   0  0  0  0  0  0  0  0  0  0  0  0
   50.2078    5.9849    1.2310 C   0  0  0  0  0  0  0  0  0  0  0  0
   51.6600    5.7768    0.7603 C   0  0  0  0  0  0  0  0  0  0  0  0
   49.2928    5.3602    0.1526 C   0  0  0  0  0  0  0  0  0  0  0  0
   49.9472    5.2498    2.5738 C   0  0  0  0  0  0  0  0  0  0  0  0
 26 27  1  0
 27 28  1  0
 27 29  1  0
 29 30  1  0
 30 24  1  0
 24  1  1  0
  1  2  2  0
  2  3  1  0
  3  4  1  0
  3  5  2  0
  5  6  1  0
  6  8  1  0
  8  9  1  0
  9 10  1  0
 10 14  1  0
 14 15  2  0
 14 16  1  0
 10 11  2  0
 11 18  1  0
 18 19  1  0
 19 20  1  0
 20 21  2  0
 20 22  1  0
 11 12  1  0
 12 13  1  0
  6  7  2  0
 30 31  1  0
 31 32  1  0
 32 33  1  0
 32 34  1  0
 32 35  1  0
 35 27  1  0
  7  1  1  0
 12  8  2  0
 24 25  1  0
 16 17  1  0
 22 23  1  0
M  END
> <minimizedAffinity>
-8.55123

> <CNNscore>
0.8012368083

> <CNNaffinity>
7.0390896797

> <CNN_VS>
5.6399779320

> <CNNaffinity_variance>
0.0444186926

$$$$



 35 37  0  0  0  0  0  0  0  0999 V2000
   44.4440   11.1260   -2.1528 C   0  0  0  0  0  0  0  0  0  0  0  0
   45.0989    9.9473   -1.7850 C   0  0  0  0  0  0  0  0  0  0  0  0
   45.8328    9.8759   -0.5979 C   0  0  0  0  0  0  0  0  0  0  0  0
   46.7281    8.2700   -0.1485 Br  0  0  0  0  0  0  0  0  0  0  0  0
   45.9094   10.9664    0.2623 C   0  0  0  0  0  0  0  0  0  0  0  0
   45.2325   12.1449   -0.0587 C   0  0  0  0  0  0  0  0  0  0  0  0
   44.4967   12.2054   -1.2544 C   0  0  0  0  0  0  0  0  0  0  0  0
   45.2779   13.2905    0.8525 C   0  0  0  0  0  0  0  0  0  0  0  0
   44.4334   14.7209    0.4360 S   0  0  0  0  0  0  0  0  0  0  0  0
   44.8823   15.5214    1.8943 C   0  0  0  0  0  0  0  0  0  0  0  0
   45.7782   14.7486    2.6174 C   0  0  0  0  0  0  0  0  0  0  0  0
   45.9219   13.4443    2.0600 C   0  0  0  0  0  0  0  0  0  0  0  0
   46.8900   12.0731    2.9466 Br  0  0  0  0  0  0  0  0  0  0  0  0
   44.2834   16.8121    2.1477 C   0  0  0  0  0  0  0  0  0  0  0  0
   44.7093   17.7251    2.8421 O   0  0  0  0  0  0  0  0  0  0  0  0
   43.1157   16.9853    1.4902 O   0  0  0  0  0  0  0  0  0  0  0  0
   42.7737   16.2975    0.9536 H   0  0  0  0  0  0  0  0  0  0  0  0
   46.3474   15.1219    3.7933 O   0  0  0  0  0  0  0  0  0  0  0  0
   47.4982   15.9454    3.6316 C   0  0  0  0  0  0  0  0  0  0  0  0
   47.6750   17.0794    4.6329 C   0  0  0  0  0  0  0  0  0  0  0  0
   48.6980   17.6617    4.9470 O   0  0  0  0  0  0  0  0  0  0  0  0
   46.4983   17.4422    5.1930 O   0  0  0  0  0  0  0  0  0  0  0  0
   45.7089   16.9972    4.9545 H   0  0  0  0  0  0  0  0  0  0  0  0
   43.6393   11.2499   -3.2858 N   0  0  0  0  0  0  0  0  0  0  0  0
   43.7567   12.0370   -3.8655 H   0  0  0  0  0  0  0  0  0  0  0  0
   41.3644   10.0095   -6.9195 C   0  0  0  0  0  0  0  0  0  0  0  0
   41.7534    9.0420   -5.7848 C   0  0  0  0  0  0  0  0  0  0  0  0
   42.1601    7.7104   -6.4536 C   0  0  0  0  0  0  0  0  0  0  0  0
   42.9694    9.6013   -4.9998 C   0  0  0  0  0  0  0  0  0  0  0  0
   42.6257   10.2540   -3.6471 C   0  0  0  0  0  0  0  0  0  0  0  0
   41.2613   10.9524   -3.6950 C   0  0  0  0  0  0  0  0  0  0  0  0
   40.1070    9.9573   -3.9521 C   0  0  0  0  0  0  0  0  0  0  0  0
   38.9195   10.7022   -4.5916 C   0  0  0  0  0  0  0  0  0  0  0  0
   39.6075    9.3920   -2.6026 C   0  0  0  0  0  0  0  0  0  0  0  0
   40.5599    8.7663   -4.8396 C   0  0  0  0  0  0  0  0  0  0  0  0
 26 27  1  0
 27 28  1  0
 27 29  1  0
 29 30  1  0
 30 24  1  0
 24  1  1  0
  1  2  2  0
  2  3  1  0
  3  4  1  0
  3  5  2  0
  5  6  1  0
  6  8  1  0
  8  9  1  0
  9 10  1  0
 10 14  1  0
 14 15  2  0
 14 16  1  0
 10 11  2  0
 11 18  1  0
 18 19  1  0
 19 20  1  0
 20 21  2  0
 20 22  1  0
 11 12  1  0
 12 13  1  0
  6  7  2  0
 30 31  1  0
 31 32  1  0
 32 33  1  0
 32 34  1  0
 32 35  1  0
 35 27  1  0
  7  1  1  0
 12  8  2  0
 24 25  1  0
 16 17  1  0
 22 23  1  0
M  END
> <minimizedAffinity>
-7.97509

> <CNNscore>
0.7488261461

> <CNNaffinity>
6.6317381859

> <CNN_VS>
4.9660191536

> <CNNaffinity_variance>
0.2814783752

$$$$



 35 37  0  0  0  0  0  0  0  0999 V2000
   46.9145    9.1823    0.6536 C   0  0  0  0  0  0  0  0  0  0  0  0
   45.9150    8.5244   -0.0686 C   0  0  0  0  0  0  0  0  0  0  0  0
   44.7425    9.1892   -0.4381 C   0  0  0  0  0  0  0  0  0  0  0  0
   43.4006    8.2557   -1.3921 Br  0  0  0  0  0  0  0  0  0  0  0  0
   44.5502   10.5298   -0.1206 C   0  0  0  0  0  0  0  0  0  0  0  0
   45.5485   11.2246    0.5655 C   0  0  0  0  0  0  0  0  0  0  0  0
   46.7238   10.5466    0.9312 C   0  0  0  0  0  0  0  0  0  0  0  0
   45.3736   12.6444    0.8787 C   0  0  0  0  0  0  0  0  0  0  0  0
   44.4133   13.6142   -0.1556 S   0  0  0  0  0  0  0  0  0  0  0  0
   44.6248   15.0222    0.8147 C   0  0  0  0  0  0  0  0  0  0  0  0
   45.5305   14.7777    1.8357 C   0  0  0  0  0  0  0  0  0  0  0  0
   45.8768   13.3971    1.9165 C   0  0  0  0  0  0  0  0  0  0  0  0
   46.9075   12.7012    3.3507 Br  0  0  0  0  0  0  0  0  0  0  0  0
   43.8592   16.1930    0.4513 C   0  0  0  0  0  0  0  0  0  0  0  0
   43.7096   16.6903   -0.6565 O   0  0  0  0  0  0  0  0  0  0  0  0
   43.2324   16.7568    1.5074 O   0  0  0  0  0  0  0  0  0  0  0  0
   43.3349   16.3901    2.3635 H   0  0  0  0  0  0  0  0  0  0  0  0
   45.9375   15.7011    2.7456 O   0  0  0  0  0  0  0  0  0  0  0  0
   45.1539   15.7108    3.9350 C   0  0  0  0  0  0  0  0  0  0  0  0
   45.9133   15.7111    5.2553 C   0  0  0  0  0  0  0  0  0  0  0  0
   46.7515   16.5030    5.6483 O   0  0  0  0  0  0  0  0  0  0  0  0
   45.5445   14.6777    6.0466 O   0  0  0  0  0  0  0  0  0  0  0  0
   44.9002   14.0661    5.7485 H   0  0  0  0  0  0  0  0  0  0  0  0
   48.1370    8.6041    0.9972 N   0  0  0  0  0  0  0  0  0  0  0  0
   48.2556    8.2561    1.9105 H   0  0  0  0  0  0  0  0  0  0  0  0
   49.7435   10.8598   -2.5026 C   0  0  0  0  0  0  0  0  0  0  0  0
   50.6235   10.0406   -1.5386 C   0  0  0  0  0  0  0  0  0  0  0  0
   51.9219   10.8492   -1.3235 C   0  0  0  0  0  0  0  0  0  0  0  0
   49.9055    9.8715   -0.1735 C   0  0  0  0  0  0  0  0  0  0  0  0
   49.2520    8.4945    0.0514 C   0  0  0  0  0  0  0  0  0  0  0  0
   48.7137    7.9112   -1.2608 C   0  0  0  0  0  0  0  0  0  0  0  0
   49.8403    7.6454   -2.2849 C   0  0  0  0  0  0  0  0  0  0  0  0
   49.2551    7.6691   -3.7099 C   0  0  0  0  0  0  0  0  0  0  0  0
   50.4140    6.2275   -2.0592 C   0  0  0  0  0  0  0  0  0  0  0  0
   51.0010    8.6670   -2.1428 C   0  0  0  0  0  0  0  0  0  0  0  0
 26 27  1  0
 27 28  1  0
 27 29  1  0
 29 30  1  0
 30 24  1  0
 24  1  1  0
  1  2  2  0
  2  3  1  0
  3  4  1  0
  3  5  2  0
  5  6  1  0
  6  8  1  0
  8  9  1  0
  9 10  1  0
 10 14  1  0
 14 15  2  0
 14 16  1  0
 10 11  2  0
 11 18  1  0
 18 19  1  0
 19 20  1  0
 20 21  2  0
 20 22  1  0
 11 12  1  0
 12 13  1  0
  6  7  2  0
 30 31  1  0
 31 32  1  0
 32 33  1  0
 32 34  1  0
 32 35  1  0
 35 27  1  0
  7  1  1  0
 12  8  2  0
 24 25  1  0
 16 17  1  0
 22 23  1  0
M  END
> <minimizedAffinity>
-6.76888

> <CNNscore>
0.7315791249

> <CNNaffinity>
6.8106026649

> <CNN_VS>
4.9824948311

> <CNNaffinity_variance>
0.1626997590

$$$$
