


 16 17  0  0  0  0  0  0  0  0999 V2000
  -18.5147   44.3562    3.1952 N   0  0  0  0  0  0  0  0  0  0  0  0
  -17.8343   45.2087    2.2305 C   0  0  0  0  0  0  0  0  0  0  0  0
  -16.4298   45.2508    2.5331 N   0  0  0  0  0  0  0  0  0  0  0  0
  -15.6784   43.7946    2.2269 S   0  0  0  0  0  0  0  0  0  0  0  0
  -15.7474   43.5313    0.8078 O   0  0  0  0  0  0  0  0  0  0  0  0
  -14.4270   43.8189    2.9499 O   0  0  0  0  0  0  0  0  0  0  0  0
  -16.7447   42.6710    3.0232 C   0  0  0  0  0  0  0  0  0  0  0  0
  -16.2557   41.4005    3.2877 C   0  0  0  0  0  0  0  0  0  0  0  0
  -16.9678   40.4623    3.9430 N   0  0  0  0  0  0  0  0  0  0  0  0
  -18.1924   40.8396    4.3519 C   0  0  0  0  0  0  0  0  0  0  0  0
  -19.0641   39.6325    5.2039 Cl  0  0  0  0  0  0  0  0  0  0  0  0
  -18.7476   42.0967    4.1341 C   0  0  0  0  0  0  0  0  0  0  0  0
  -18.0239   43.0688    3.4291 C   0  0  0  0  0  0  0  0  0  0  0  0
  -16.3127   45.4802    3.5201 H   0  0  0  0  0  0  0  0  0  0  0  0
  -20.7145   44.5330    2.1203 C   0  0  0  0  0  0  0  0  0  0  0  0
  -19.9331   44.6801    3.4173 C   0  0  0  0  0  0  0  0  0  0  0  0
 15 16  1  0
 16  1  1  0
  1  2  1  0
  2  3  1  0
  3  4  1  0
  4  5  2  0
  4  6  2  0
  4  7  1  0
  7  8  2  0
  8  9  1  0
  9 10  2  0
 10 11  1  0
 10 12  1  0
 12 13  2  0
 13  1  1  0
 13  7  1  0
  3 14  1  0
M  END
> <minimizedAffinity>
-4.35840

> <CNNscore>
0.5387073159

> <CNNaffinity>
4.1803584099

> <CNN_VS>
2.2519896030

> <CNNaffinity_variance>
0.0383257754

$$$$



 16 17  0  0  0  0  0  0  0  0999 V2000
  -18.9378   46.2132    3.2215 N   0  0  0  0  0  0  0  0  0  0  0  0
  -17.9875   47.0863    3.8961 C   0  0  0  0  0  0  0  0  0  0  0  0
  -18.2750   48.4554    3.5660 N   0  0  0  0  0  0  0  0  0  0  0  0
  -19.7011   48.9797    4.2519 S   0  0  0  0  0  0  0  0  0  0  0  0
  -19.5526   48.9648    5.6891 O   0  0  0  0  0  0  0  0  0  0  0  0
  -20.0930   50.1667    3.5262 O   0  0  0  0  0  0  0  0  0  0  0  0
  -20.7948   47.6940    3.8224 C   0  0  0  0  0  0  0  0  0  0  0  0
  -22.1545   47.9516    3.9136 C   0  0  0  0  0  0  0  0  0  0  0  0
  -23.0962   47.0542    3.5607 N   0  0  0  0  0  0  0  0  0  0  0  0
  -22.6365   45.8822    3.0870 C   0  0  0  0  0  0  0  0  0  0  0  0
  -23.8584   44.7709    2.6235 Cl  0  0  0  0  0  0  0  0  0  0  0  0
  -21.2908   45.5541    2.9559 C   0  0  0  0  0  0  0  0  0  0  0  0
  -20.3054   46.4718    3.3469 C   0  0  0  0  0  0  0  0  0  0  0  0
  -18.3466   48.5412    2.5522 H   0  0  0  0  0  0  0  0  0  0  0  0
  -17.8423   44.7874    1.5503 C   0  0  0  0  0  0  0  0  0  0  0  0
  -18.4442   44.8544    2.9459 C   0  0  0  0  0  0  0  0  0  0  0  0
 15 16  1  0
 16  1  1  0
  1  2  1  0
  2  3  1  0
  3  4  1  0
  4  5  2  0
  4  6  2  0
  4  7  1  0
  7  8  2  0
  8  9  1  0
  9 10  2  0
 10 11  1  0
 10 12  1  0
 12 13  2  0
 13  1  1  0
 13  7  1  0
  3 14  1  0
M  END
> <minimizedAffinity>
-4.30222

> <CNNscore>
0.5332009196

> <CNNaffinity>
4.3356518745

> <CNN_VS>
2.3117735386

> <CNNaffinity_variance>
0.1650633961

$$$$



 16 17  0  0  0  0  0  0  0  0999 V2000
  -14.6957   46.0005   -6.1431 N   0  0  0  0  0  0  0  0  0  0  0  0
  -13.6509   47.0141   -6.1036 C   0  0  0  0  0  0  0  0  0  0  0  0
  -14.2252   48.2824   -5.7463 N   0  0  0  0  0  0  0  0  0  0  0  0
  -14.7338   48.3157   -4.1590 S   0  0  0  0  0  0  0  0  0  0  0  0
  -13.5782   48.1741   -3.3032 O   0  0  0  0  0  0  0  0  0  0  0  0
  -15.6499   49.4279   -4.0453 O   0  0  0  0  0  0  0  0  0  0  0  0
  -15.6533   46.8405   -4.0503 C   0  0  0  0  0  0  0  0  0  0  0  0
  -16.5263   46.7065   -2.9810 C   0  0  0  0  0  0  0  0  0  0  0  0
  -17.3269   45.6345   -2.8179 N   0  0  0  0  0  0  0  0  0  0  0  0
  -17.2465   44.6951   -3.7772 C   0  0  0  0  0  0  0  0  0  0  0  0
  -18.2948   43.3556   -3.5545 Cl  0  0  0  0  0  0  0  0  0  0  0  0
  -16.4049   44.7627   -4.8831 C   0  0  0  0  0  0  0  0  0  0  0  0
  -15.5491   45.8614   -5.0452 C   0  0  0  0  0  0  0  0  0  0  0  0
  -15.0257   48.4633   -6.3520 H   0  0  0  0  0  0  0  0  0  0  0  0
  -15.5179   44.7708   -8.1021 C   0  0  0  0  0  0  0  0  0  0  0  0
  -14.4281   44.8688   -7.0450 C   0  0  0  0  0  0  0  0  0  0  0  0
 15 16  1  0
 16  1  1  0
  1  2  1  0
  2  3  1  0
  3  4  1  0
  4  5  2  0
  4  6  2  0
  4  7  1  0
  7  8  2  0
  8  9  1  0
  9 10  2  0
 10 11  1  0
 10 12  1  0
 12 13  2  0
 13  1  1  0
 13  7  1  0
  3 14  1  0
M  END
> <minimizedAffinity>
-6.13407

> <CNNscore>
0.5309945345

> <CNNaffinity>
4.5657382011

> <CNN_VS>
2.4243819714

> <CNNaffinity_variance>
0.4026323259

$$$$



 16 17  0  0  0  0  0  0  0  0999 V2000
  -25.7297   43.4292   -6.0015 N   0  0  0  0  0  0  0  0  0  0  0  0
  -25.5003   44.4190   -7.0447 C   0  0  0  0  0  0  0  0  0  0  0  0
  -24.4733   45.3321   -6.6230 N   0  0  0  0  0  0  0  0  0  0  0  0
  -22.9738   44.6061   -6.5653 S   0  0  0  0  0  0  0  0  0  0  0  0
  -22.6001   44.2160   -7.9055 O   0  0  0  0  0  0  0  0  0  0  0  0
  -22.1391   45.4539   -5.7445 O   0  0  0  0  0  0  0  0  0  0  0  0
  -23.3181   43.1519   -5.6706 C   0  0  0  0  0  0  0  0  0  0  0  0
  -22.2445   42.4703   -5.1172 C   0  0  0  0  0  0  0  0  0  0  0  0
  -22.3893   41.3630   -4.3624 N   0  0  0  0  0  0  0  0  0  0  0  0
  -23.6558   40.9605   -4.1543 C   0  0  0  0  0  0  0  0  0  0  0  0
  -23.8084   39.5637   -3.1702 Cl  0  0  0  0  0  0  0  0  0  0  0  0
  -24.7828   41.5961   -4.6658 C   0  0  0  0  0  0  0  0  0  0  0  0
  -24.6390   42.7323   -5.4746 C   0  0  0  0  0  0  0  0  0  0  0  0
  -24.7055   45.6817   -5.6934 H   0  0  0  0  0  0  0  0  0  0  0  0
  -27.7865   43.1188   -7.3050 C   0  0  0  0  0  0  0  0  0  0  0  0
  -27.0820   42.8488   -5.9839 C   0  0  0  0  0  0  0  0  0  0  0  0
 15 16  1  0
 16  1  1  0
  1  2  1  0
  2  3  1  0
  3  4  1  0
  4  5  2  0
  4  6  2  0
  4  7  1  0
  7  8  2  0
  8  9  1  0
  9 10  2  0
 10 11  1  0
 10 12  1  0
 12 13  2  0
 13  1  1  0
 13  7  1  0
  3 14  1  0
M  END
> <minimizedAffinity>
-5.57931

> <CNNscore>
0.4896403551

> <CNNaffinity>
4.4086213112

> <CNN_VS>
2.1586389542

> <CNNaffinity_variance>
0.7629733682

$$$$



 16 17  0  0  0  0  0  0  0  0999 V2000
  -19.1371   41.9261    3.6012 N   0  0  0  0  0  0  0  0  0  0  0  0
  -20.5350   41.8097    3.2103 C   0  0  0  0  0  0  0  0  0  0  0  0
  -21.1775   43.0892    3.3372 N   0  0  0  0  0  0  0  0  0  0  0  0
  -20.6380   44.1779    2.1959 S   0  0  0  0  0  0  0  0  0  0  0  0
  -21.0172   43.6973    0.8870 O   0  0  0  0  0  0  0  0  0  0  0  0
  -21.0064   45.4908    2.6753 O   0  0  0  0  0  0  0  0  0  0  0  0
  -18.9099   44.0125    2.3371 C   0  0  0  0  0  0  0  0  0  0  0  0
  -18.1233   45.0188    1.7967 C   0  0  0  0  0  0  0  0  0  0  0  0
  -16.7786   45.0273    1.8882 N   0  0  0  0  0  0  0  0  0  0  0  0
  -16.2333   43.9991    2.5624 C   0  0  0  0  0  0  0  0  0  0  0  0
  -14.5229   44.0511    2.6828 Cl  0  0  0  0  0  0  0  0  0  0  0  0
  -16.9551   42.9596    3.1407 C   0  0  0  0  0  0  0  0  0  0  0  0
  -18.3521   42.9291    3.0259 C   0  0  0  0  0  0  0  0  0  0  0  0
  -20.9841   43.4636    4.2661 H   0  0  0  0  0  0  0  0  0  0  0  0
  -18.9797   39.4983    3.2742 C   0  0  0  0  0  0  0  0  0  0  0  0
  -18.5305   40.6863    4.1118 C   0  0  0  0  0  0  0  0  0  0  0  0
 15 16  1  0
 16  1  1  0
  1  2  1  0
  2  3  1  0
  3  4  1  0
  4  5  2  0
  4  6  2  0
  4  7  1  0
  7  8  2  0
  8  9  1  0
  9 10  2  0
 10 11  1  0
 10 12  1  0
 12 13  2  0
 13  1  1  0
 13  7  1  0
  3 14  1  0
M  END
> <minimizedAffinity>
-4.13863

> <CNNscore>
0.4847379923

> <CNNaffinity>
4.1537661552

> <CNN_VS>
2.0134882927

> <CNNaffinity_variance>
0.2014232129

$$$$



 16 17  0  0  0  0  0  0  0  0999 V2000
  -20.3074   39.4099    4.0343 N   0  0  0  0  0  0  0  0  0  0  0  0
  -19.3505   39.3033    2.9418 C   0  0  0  0  0  0  0  0  0  0  0  0
  -19.5145   38.0372    2.2814 N   0  0  0  0  0  0  0  0  0  0  0  0
  -20.9470   37.9533    1.4329 S   0  0  0  0  0  0  0  0  0  0  0  0
  -20.9077   38.9286    0.3674 O   0  0  0  0  0  0  0  0  0  0  0  0
  -21.1981   36.5508    1.1899 O   0  0  0  0  0  0  0  0  0  0  0  0
  -22.0941   38.5139    2.6175 C   0  0  0  0  0  0  0  0  0  0  0  0
  -23.4351   38.2428    2.3900 C   0  0  0  0  0  0  0  0  0  0  0  0
  -24.4092   38.5806    3.2581 N   0  0  0  0  0  0  0  0  0  0  0  0
  -23.9999   39.1871    4.3868 C   0  0  0  0  0  0  0  0  0  0  0  0
  -25.2596   39.5823    5.4821 Cl  0  0  0  0  0  0  0  0  0  0  0  0
  -22.6748   39.4830    4.6910 C   0  0  0  0  0  0  0  0  0  0  0  0
  -21.6587   39.1597    3.7806 C   0  0  0  0  0  0  0  0  0  0  0  0
  -19.5038   37.2966    2.9827 H   0  0  0  0  0  0  0  0  0  0  0  0
  -18.7537   39.6507    5.9195 C   0  0  0  0  0  0  0  0  0  0  0  0
  -19.8924   40.2896    5.1387 C   0  0  0  0  0  0  0  0  0  0  0  0
 15 16  1  0
 16  1  1  0
  1  2  1  0
  2  3  1  0
  3  4  1  0
  4  5  2  0
  4  6  2  0
  4  7  1  0
  7  8  2  0
  8  9  1  0
  9 10  2  0
 10 11  1  0
 10 12  1  0
 12 13  2  0
 13  1  1  0
 13  7  1  0
  3 14  1  0
M  END
> <minimizedAffinity>
-4.19447

> <CNNscore>
0.4263373911

> <CNNaffinity>
4.4201984406

> <CNN_VS>
1.8844958544

> <CNNaffinity_variance>
0.0380481333

$$$$



 16 17  0  0  0  0  0  0  0  0999 V2000
  -22.4936   38.9112   -1.1911 N   0  0  0  0  0  0  0  0  0  0  0  0
  -23.5723   38.0879   -1.7195 C   0  0  0  0  0  0  0  0  0  0  0  0
  -23.1784   36.7058   -1.6941 N   0  0  0  0  0  0  0  0  0  0  0  0
  -23.0816   36.1098   -0.1402 S   0  0  0  0  0  0  0  0  0  0  0  0
  -24.4031   36.1328    0.4439 O   0  0  0  0  0  0  0  0  0  0  0  0
  -22.2878   34.9040   -0.2123 O   0  0  0  0  0  0  0  0  0  0  0  0
  -22.1343   37.3379    0.6522 C   0  0  0  0  0  0  0  0  0  0  0  0
  -21.5472   37.0113    1.8655 C   0  0  0  0  0  0  0  0  0  0  0  0
  -20.7515   37.8594    2.5470 N   0  0  0  0  0  0  0  0  0  0  0  0
  -20.5376   39.0531    1.9651 C   0  0  0  0  0  0  0  0  0  0  0  0
  -19.5017   40.1005    2.8443 Cl  0  0  0  0  0  0  0  0  0  0  0  0
  -21.0814   39.4493    0.7473 C   0  0  0  0  0  0  0  0  0  0  0  0
  -21.9322   38.5832    0.0460 C   0  0  0  0  0  0  0  0  0  0  0  0
  -22.2646   36.6160   -2.1382 H   0  0  0  0  0  0  0  0  0  0  0  0
  -23.3317   40.4168   -2.9394 C   0  0  0  0  0  0  0  0  0  0  0  0
  -22.4638   40.2932   -1.6960 C   0  0  0  0  0  0  0  0  0  0  0  0
 15 16  1  0
 16  1  1  0
  1  2  1  0
  2  3  1  0
  3  4  1  0
  4  5  2  0
  4  6  2  0
  4  7  1  0
  7  8  2  0
  8  9  1  0
  9 10  2  0
 10 11  1  0
 10 12  1  0
 12 13  2  0
 13  1  1  0
 13  7  1  0
  3 14  1  0
M  END
> <minimizedAffinity>
-4.41407

> <CNNscore>
0.4126337171

> <CNNaffinity>
4.3748593330

> <CNN_VS>
1.8052145243

> <CNNaffinity_variance>
0.1676169634

$$$$



 16 17  0  0  0  0  0  0  0  0999 V2000
  -13.0502   45.6210   -5.9566 N   0  0  0  0  0  0  0  0  0  0  0  0
  -13.2505   44.6360   -7.0103 C   0  0  0  0  0  0  0  0  0  0  0  0
  -14.2051   43.6537   -6.5745 N   0  0  0  0  0  0  0  0  0  0  0  0
  -15.7442   44.2834   -6.4579 S   0  0  0  0  0  0  0  0  0  0  0  0
  -16.1833   44.6714   -7.7787 O   0  0  0  0  0  0  0  0  0  0  0  0
  -16.4984   43.3716   -5.6279 O   0  0  0  0  0  0  0  0  0  0  0  0
  -15.4627   45.7413   -5.5474 C   0  0  0  0  0  0  0  0  0  0  0  0
  -16.5586   46.3453   -4.9492 C   0  0  0  0  0  0  0  0  0  0  0  0
  -16.4591   47.4468   -4.1790 N   0  0  0  0  0  0  0  0  0  0  0  0
  -15.2141   47.9243   -4.0021 C   0  0  0  0  0  0  0  0  0  0  0  0
  -15.1175   49.3115   -2.9975 Cl  0  0  0  0  0  0  0  0  0  0  0  0
  -14.0664   47.3690   -4.5591 C   0  0  0  0  0  0  0  0  0  0  0  0
  -14.1649   46.2395   -5.3840 C   0  0  0  0  0  0  0  0  0  0  0  0
  -13.9225   43.3041   -5.6589 H   0  0  0  0  0  0  0  0  0  0  0  0
  -10.8111   45.5978   -6.9626 C   0  0  0  0  0  0  0  0  0  0  0  0
  -11.7366   46.2845   -5.9694 C   0  0  0  0  0  0  0  0  0  0  0  0
 15 16  1  0
 16  1  1  0
  1  2  1  0
  2  3  1  0
  3  4  1  0
  4  5  2  0
  4  6  2  0
  4  7  1  0
  7  8  2  0
  8  9  1  0
  9 10  2  0
 10 11  1  0
 10 12  1  0
 12 13  2  0
 13  1  1  0
 13  7  1  0
  3 14  1  0
M  END
> <minimizedAffinity>
-5.25050

> <CNNscore>
0.4046529830

> <CNNaffinity>
4.1058678627

> <CNN_VS>
1.6614516973

> <CNNaffinity_variance>
1.0219551325

$$$$



 16 17  0  0  0  0  0  0  0  0999 V2000
  -19.8790   45.0045    3.1294 N   0  0  0  0  0  0  0  0  0  0  0  0
  -20.4109   44.0699    2.1474 C   0  0  0  0  0  0  0  0  0  0  0  0
  -21.7687   43.7399    2.4844 N   0  0  0  0  0  0  0  0  0  0  0  0
  -22.8016   45.0290    2.2597 S   0  0  0  0  0  0  0  0  0  0  0  0
  -22.8337   45.3521    0.8517 O   0  0  0  0  0  0  0  0  0  0  0  0
  -23.9985   44.7315    3.0133 O   0  0  0  0  0  0  0  0  0  0  0  0
  -21.9505   46.3115    3.0748 C   0  0  0  0  0  0  0  0  0  0  0  0
  -22.6705   47.4499    3.4054 C   0  0  0  0  0  0  0  0  0  0  0  0
  -22.1348   48.4858    4.0811 N   0  0  0  0  0  0  0  0  0  0  0  0
  -20.8469   48.3435    4.4417 C   0  0  0  0  0  0  0  0  0  0  0  0
  -20.2012   49.6674    5.3210 Cl  0  0  0  0  0  0  0  0  0  0  0  0
  -20.0631   47.2298    4.1566 C   0  0  0  0  0  0  0  0  0  0  0  0
  -20.6051   46.1601    3.4301 C   0  0  0  0  0  0  0  0  0  0  0  0
  -21.8049   43.4563    3.4635 H   0  0  0  0  0  0  0  0  0  0  0  0
  -17.7256   45.1929    1.9661 C   0  0  0  0  0  0  0  0  0  0  0  0
  -18.4180   44.9596    3.3006 C   0  0  0  0  0  0  0  0  0  0  0  0
 15 16  1  0
 16  1  1  0
  1  2  1  0
  2  3  1  0
  3  4  1  0
  4  5  2  0
  4  6  2  0
  4  7  1  0
  7  8  2  0
  8  9  1  0
  9 10  2  0
 10 11  1  0
 10 12  1  0
 12 13  2  0
 13  1  1  0
 13  7  1  0
  3 14  1  0
M  END
> <minimizedAffinity>
-4.49651

> <CNNscore>
0.3978478312

> <CNNaffinity>
3.8022105694

> <CNN_VS>
1.5127012730

> <CNNaffinity_variance>
0.1883352250

$$$$
