


 32 33  0  0  0  0  0  0  0  0999 V2000
   -9.2335   13.6995   21.2516 C   0  0  0  0  0  0  0  0  0  0  0  0
   -8.6713   15.1296   21.0761 C   0  0  0  0  0  0  0  0  0  0  0  0
   -7.5171   15.1782   20.2044 O   0  0  0  0  0  0  0  0  0  0  0  0
   -7.6785   16.3120   19.2962 C   0  0  0  0  0  0  0  0  0  0  0  0
   -9.1912   16.3866   19.1206 C   0  0  0  0  0  0  0  0  0  0  0  0
   -9.7111   16.1038   20.5157 C   0  0  0  0  0  0  0  0  0  0  0  0
  -11.0355   15.5731   20.4773 O   0  0  0  0  0  0  0  0  0  0  0  0
  -11.4038   15.0185   21.7445 C   0  0  0  0  0  0  0  0  0  0  0  0
  -10.5062   13.8265   22.1370 C   0  0  0  0  0  0  0  0  0  0  0  0
  -11.2744   12.6194   22.1330 O   0  0  0  0  0  0  0  0  0  0  0  0
  -11.6035   12.4485   21.2367 H   0  0  0  0  0  0  0  0  0  0  0  0
   -8.9777   11.7057   19.8282 C   0  0  0  0  0  0  0  0  0  0  0  0
   -9.4690   13.0700   19.9316 N   0  0  0  0  0  0  0  0  0  0  0  0
  -10.4736   13.0628   19.7548 H   0  0  0  0  0  0  0  0  0  0  0  0
   -6.8898   15.9853   18.0025 C   0  0  0  0  0  0  0  0  0  0  0  0
   -6.0099   14.7207   17.9721 C   0  0  0  0  0  0  0  0  0  0  0  0
   -6.2845   13.7781   19.0665 N   0  0  0  0  0  0  0  0  0  0  0  0
   -6.0923   14.2298   19.9606 H   0  0  0  0  0  0  0  0  0  0  0  0
   -5.6883   12.9567   18.9654 H   0  0  0  0  0  0  0  0  0  0  0  0
   -4.5450   15.1717   18.0568 C   0  0  0  0  0  0  0  0  0  0  0  0
   -4.1248   16.2780   18.3617 O   0  0  0  0  0  0  0  0  0  0  0  0
   -3.6796   14.2021   17.6845 O   0  0  0  0  0  0  0  0  0  0  0  0
   -3.9997   13.3532   17.4503 H   0  0  0  0  0  0  0  0  0  0  0  0
   -7.0108   17.5215   20.0468 C   0  0  0  0  0  0  0  0  0  0  0  0
   -7.7411   18.4299   21.1164 C   0  0  0  0  0  0  0  0  0  0  0  0
   -7.6860   19.9146   20.7642 C   0  0  0  0  0  0  0  0  0  0  0  0
   -9.2199   17.9943   21.2110 C   0  0  0  0  0  0  0  0  0  0  0  0
   -7.0229   18.1204   22.4892 C   0  0  0  0  0  0  0  0  0  0  0  0
   -5.8715   17.0786   22.6796 C   0  0  0  0  0  0  0  0  0  0  0  0
   -5.2010   16.7058   21.3433 C   0  0  0  0  0  0  0  0  0  0  0  0
   -6.5299   15.7832   23.2227 C   0  0  0  0  0  0  0  0  0  0  0  0
   -4.7976   17.4997   23.6875 C   0  0  0  0  0  0  0  0  0  0  0  0
 12 13  1  0
  1 13  1  0
  1  2  1  0
  2  3  1  0
  3  4  1  0
  4 15  1  0
 15 16  1  0
 16 17  1  0
 16 20  1  0
 20 21  2  0
 20 22  1  0
  4 24  1  0
 24 25  1  0
 25 26  1  0
 25 27  1  0
 25 28  1  0
 28 29  1  0
 29 30  1  0
 29 31  1  0
 29 32  1  0
  4  5  1  0
  6  5  1  0
  6  7  1  0
  7  8  1  0
  8  9  1  0
  9 10  1  0
  9  1  1  0
  6  2  1  0
 13 14  1  0
 17 18  1  0
 17 19  1  0
 22 23  1  0
 10 11  1  0
M  END
> <minimizedAffinity>
-0.97441

> <CNNscore>
0.6688752770

> <CNNaffinity>
7.2995858192

> <CNN_VS>
4.8825125694

> <CNNaffinity_variance>
0.2622408569

$$$$



 32 33  0  0  0  0  0  0  0  0999 V2000
   -9.9900   13.4207   21.5775 C   0  0  0  0  0  0  0  0  0  0  0  0
   -8.9233   14.5375   21.4933 C   0  0  0  0  0  0  0  0  0  0  0  0
   -7.6230   14.0456   21.0911 O   0  0  0  0  0  0  0  0  0  0  0  0
   -7.0773   14.9624   20.0922 C   0  0  0  0  0  0  0  0  0  0  0  0
   -8.3288   15.4660   19.3817 C   0  0  0  0  0  0  0  0  0  0  0  0
   -9.3151   15.6504   20.5174 C   0  0  0  0  0  0  0  0  0  0  0  0
  -10.6620   15.5615   20.0534 O   0  0  0  0  0  0  0  0  0  0  0  0
  -11.5741   15.4204   21.1475 C   0  0  0  0  0  0  0  0  0  0  0  0
  -11.3352   14.1153   21.9350 C   0  0  0  0  0  0  0  0  0  0  0  0
  -12.4477   13.2327   21.7595 O   0  0  0  0  0  0  0  0  0  0  0  0
  -12.5257   12.9931   20.8228 H   0  0  0  0  0  0  0  0  0  0  0  0
   -8.9421   11.6752   20.1912 C   0  0  0  0  0  0  0  0  0  0  0  0
  -10.0223   12.6396   20.3192 N   0  0  0  0  0  0  0  0  0  0  0  0
  -10.9082   12.1357   20.2778 H   0  0  0  0  0  0  0  0  0  0  0  0
   -6.1060   14.1495   19.1988 C   0  0  0  0  0  0  0  0  0  0  0  0
   -5.6844   14.7379   17.8385 C   0  0  0  0  0  0  0  0  0  0  0  0
   -5.7380   13.7731   16.7304 N   0  0  0  0  0  0  0  0  0  0  0  0
   -5.0906   13.0069   16.9151 H   0  0  0  0  0  0  0  0  0  0  0  0
   -5.4752   14.2383   15.8615 H   0  0  0  0  0  0  0  0  0  0  0  0
   -4.2463   15.2554   17.9815 C   0  0  0  0  0  0  0  0  0  0  0  0
   -3.8893   16.3683   18.3381 O   0  0  0  0  0  0  0  0  0  0  0  0
   -3.3245   14.3432   17.5994 O   0  0  0  0  0  0  0  0  0  0  0  0
   -3.5961   13.4892   17.3256 H   0  0  0  0  0  0  0  0  0  0  0  0
   -6.2804   16.0311   20.9259 C   0  0  0  0  0  0  0  0  0  0  0  0
   -6.6472   16.4792   22.3981 C   0  0  0  0  0  0  0  0  0  0  0  0
   -5.5292   17.2754   23.0672 C   0  0  0  0  0  0  0  0  0  0  0  0
   -7.9204   17.3520   22.3487 C   0  0  0  0  0  0  0  0  0  0  0  0
   -6.9679   15.1416   23.1753 C   0  0  0  0  0  0  0  0  0  0  0  0
   -6.7684   14.9325   24.7128 C   0  0  0  0  0  0  0  0  0  0  0  0
   -6.2154   13.5320   25.0398 C   0  0  0  0  0  0  0  0  0  0  0  0
   -8.1763   15.0161   25.3588 C   0  0  0  0  0  0  0  0  0  0  0  0
   -5.8949   15.9947   25.3876 C   0  0  0  0  0  0  0  0  0  0  0  0
 12 13  1  0
  1 13  1  0
  1  2  1  0
  2  3  1  0
  3  4  1  0
  4 15  1  0
 15 16  1  0
 16 17  1  0
 16 20  1  0
 20 21  2  0
 20 22  1  0
  4 24  1  0
 24 25  1  0
 25 26  1  0
 25 27  1  0
 25 28  1  0
 28 29  1  0
 29 30  1  0
 29 31  1  0
 29 32  1  0
  4  5  1  0
  6  5  1  0
  6  7  1  0
  7  8  1  0
  8  9  1  0
  9 10  1  0
  9  1  1  0
  6  2  1  0
 13 14  1  0
 17 18  1  0
 17 19  1  0
 22 23  1  0
 10 11  1  0
M  END
> <minimizedAffinity>
1.39140

> <CNNscore>
0.6567773223

> <CNNaffinity>
7.3109631538

> <CNN_VS>
4.8016748428

> <CNNaffinity_variance>
0.3396553993

$$$$



 32 33  0  0  0  0  0  0  0  0999 V2000
   -9.7319   13.4520   22.0896 C   0  0  0  0  0  0  0  0  0  0  0  0
   -9.3021   14.7379   21.3454 C   0  0  0  0  0  0  0  0  0  0  0  0
   -7.8666   14.8520   21.2005 O   0  0  0  0  0  0  0  0  0  0  0  0
   -7.5785   15.2783   19.8325 C   0  0  0  0  0  0  0  0  0  0  0  0
   -8.7155   14.6445   19.0386 C   0  0  0  0  0  0  0  0  0  0  0  0
   -9.9141   14.8377   19.9455 C   0  0  0  0  0  0  0  0  0  0  0  0
  -10.9222   13.8609   19.6868 O   0  0  0  0  0  0  0  0  0  0  0  0
  -11.8996   13.8419   20.7324 C   0  0  0  0  0  0  0  0  0  0  0  0
  -11.2874   13.4356   22.0891 C   0  0  0  0  0  0  0  0  0  0  0  0
  -11.8018   12.1624   22.4911 O   0  0  0  0  0  0  0  0  0  0  0  0
  -11.5396   11.4888   21.8441 H   0  0  0  0  0  0  0  0  0  0  0  0
   -8.3419   12.5507   20.2668 C   0  0  0  0  0  0  0  0  0  0  0  0
   -9.1091   12.2607   21.4671 N   0  0  0  0  0  0  0  0  0  0  0  0
   -8.4850   11.8317   22.1504 H   0  0  0  0  0  0  0  0  0  0  0  0
   -6.1646   14.7555   19.4724 C   0  0  0  0  0  0  0  0  0  0  0  0
   -5.7013   14.8268   18.0045 C   0  0  0  0  0  0  0  0  0  0  0  0
   -5.9205   13.5841   17.2500 N   0  0  0  0  0  0  0  0  0  0  0  0
   -5.3828   12.8288   17.6754 H   0  0  0  0  0  0  0  0  0  0  0  0
   -5.6183   13.7146   16.2846 H   0  0  0  0  0  0  0  0  0  0  0  0
   -4.2011   15.1526   18.0059 C   0  0  0  0  0  0  0  0  0  0  0  0
   -3.2796   14.4105   17.7007 O   0  0  0  0  0  0  0  0  0  0  0  0
   -3.9397   16.3987   18.4606 O   0  0  0  0  0  0  0  0  0  0  0  0
   -4.6448   16.9694   18.6951 H   0  0  0  0  0  0  0  0  0  0  0  0
   -7.5748   16.8493   19.8975 C   0  0  0  0  0  0  0  0  0  0  0  0
   -7.6121   17.6940   21.2345 C   0  0  0  0  0  0  0  0  0  0  0  0
   -6.4636   17.3508   22.1803 C   0  0  0  0  0  0  0  0  0  0  0  0
   -7.5319   19.1943   20.8764 C   0  0  0  0  0  0  0  0  0  0  0  0
   -9.0216   17.3923   21.8814 C   0  0  0  0  0  0  0  0  0  0  0  0
  -10.3805   17.9786   21.3747 C   0  0  0  0  0  0  0  0  0  0  0  0
  -10.3919   19.5193   21.3997 C   0  0  0  0  0  0  0  0  0  0  0  0
  -11.4678   17.5101   22.3771 C   0  0  0  0  0  0  0  0  0  0  0  0
  -10.8019   17.4893   19.9856 C   0  0  0  0  0  0  0  0  0  0  0  0
 12 13  1  0
  1 13  1  0
  1  2  1  0
  2  3  1  0
  3  4  1  0
  4 15  1  0
 15 16  1  0
 16 17  1  0
 16 20  1  0
 20 21  2  0
 20 22  1  0
  4 24  1  0
 24 25  1  0
 25 26  1  0
 25 27  1  0
 25 28  1  0
 28 29  1  0
 29 30  1  0
 29 31  1  0
 29 32  1  0
  4  5  1  0
  6  5  1  0
  6  7  1  0
  7  8  1  0
  8  9  1  0
  9 10  1  0
  9  1  1  0
  6  2  1  0
 13 14  1  0
 17 18  1  0
 17 19  1  0
 22 23  1  0
 10 11  1  0
M  END
> <minimizedAffinity>
-2.25614

> <CNNscore>
0.6462236643

> <CNNaffinity>
7.1928305626

> <CNN_VS>
4.6481771469

> <CNNaffinity_variance>
0.0797660574

$$$$



 32 33  0  0  0  0  0  0  0  0999 V2000
   -9.9106   13.3322   21.7350 C   0  0  0  0  0  0  0  0  0  0  0  0
   -8.9670   14.5348   21.4998 C   0  0  0  0  0  0  0  0  0  0  0  0
   -7.6237   14.1348   21.1388 O   0  0  0  0  0  0  0  0  0  0  0  0
   -7.1804   14.9751   20.0281 C   0  0  0  0  0  0  0  0  0  0  0  0
   -8.4802   15.2566   19.2826 C   0  0  0  0  0  0  0  0  0  0  0  0
   -9.4764   15.4745   20.4036 C   0  0  0  0  0  0  0  0  0  0  0  0
  -10.8082   15.1911   19.9754 O   0  0  0  0  0  0  0  0  0  0  0  0
  -11.6967   15.0903   21.0932 C   0  0  0  0  0  0  0  0  0  0  0  0
  -11.3199   13.9222   22.0281 C   0  0  0  0  0  0  0  0  0  0  0  0
  -12.3345   12.9146   21.9781 O   0  0  0  0  0  0  0  0  0  0  0  0
  -12.3903   12.5563   21.0784 H   0  0  0  0  0  0  0  0  0  0  0  0
   -8.6128   11.6790   20.4508 C   0  0  0  0  0  0  0  0  0  0  0  0
   -9.8655   12.4050   20.5806 N   0  0  0  0  0  0  0  0  0  0  0  0
  -10.6197   11.7263   20.6853 H   0  0  0  0  0  0  0  0  0  0  0  0
   -6.1325   14.1646   19.2235 C   0  0  0  0  0  0  0  0  0  0  0  0
   -5.6948   14.6878   17.8419 C   0  0  0  0  0  0  0  0  0  0  0  0
   -5.8472   13.7061   16.7580 N   0  0  0  0  0  0  0  0  0  0  0  0
   -5.2582   12.8954   16.9483 H   0  0  0  0  0  0  0  0  0  0  0  0
   -5.5670   14.1299   15.8736 H   0  0  0  0  0  0  0  0  0  0  0  0
   -4.2177   15.0931   17.9450 C   0  0  0  0  0  0  0  0  0  0  0  0
   -3.2388   14.3936   17.7311 O   0  0  0  0  0  0  0  0  0  0  0  0
   -4.0556   16.3625   18.3807 O   0  0  0  0  0  0  0  0  0  0  0  0
   -4.8048   16.9006   18.5453 H   0  0  0  0  0  0  0  0  0  0  0  0
   -6.4967   16.2137   20.7142 C   0  0  0  0  0  0  0  0  0  0  0  0
   -6.6537   16.5960   22.2412 C   0  0  0  0  0  0  0  0  0  0  0  0
   -7.2615   15.4678   23.0714 C   0  0  0  0  0  0  0  0  0  0  0  0
   -5.2608   16.9409   22.8124 C   0  0  0  0  0  0  0  0  0  0  0  0
   -7.5543   17.8940   22.2577 C   0  0  0  0  0  0  0  0  0  0  0  0
   -8.0645   18.6430   20.9825 C   0  0  0  0  0  0  0  0  0  0  0  0
   -7.8190   20.1619   21.0659 C   0  0  0  0  0  0  0  0  0  0  0  0
   -9.6022   18.4435   20.9357 C   0  0  0  0  0  0  0  0  0  0  0  0
   -7.4964   18.1075   19.6645 C   0  0  0  0  0  0  0  0  0  0  0  0
 12 13  1  0
  1 13  1  0
  1  2  1  0
  2  3  1  0
  3  4  1  0
  4 15  1  0
 15 16  1  0
 16 17  1  0
 16 20  1  0
 20 21  2  0
 20 22  1  0
  4 24  1  0
 24 25  1  0
 25 26  1  0
 25 27  1  0
 25 28  1  0
 28 29  1  0
 29 30  1  0
 29 31  1  0
 29 32  1  0
  4  5  1  0
  6  5  1  0
  6  7  1  0
  7  8  1  0
  8  9  1  0
  9 10  1  0
  9  1  1  0
  6  2  1  0
 13 14  1  0
 17 18  1  0
 17 19  1  0
 22 23  1  0
 10 11  1  0
M  END
> <minimizedAffinity>
-1.69152

> <CNNscore>
0.4999161661

> <CNNaffinity>
7.0117702484

> <CNN_VS>
3.5052971840

> <CNNaffinity_variance>
0.0688117743

$$$$



 32 33  0  0  0  0  0  0  0  0999 V2000
   -7.0432   10.3932   30.6404 C   0  0  0  0  0  0  0  0  0  0  0  0
   -8.3904    9.9272   30.0406 C   0  0  0  0  0  0  0  0  0  0  0  0
   -8.2423    8.8321   29.1060 O   0  0  0  0  0  0  0  0  0  0  0  0
   -9.2824    7.8454   29.3908 C   0  0  0  0  0  0  0  0  0  0  0  0
   -9.4725    7.9857   30.8971 C   0  0  0  0  0  0  0  0  0  0  0  0
   -9.3880    9.4832   31.1138 C   0  0  0  0  0  0  0  0  0  0  0  0
   -8.9765    9.7914   32.4453 O   0  0  0  0  0  0  0  0  0  0  0  0
   -8.5957   11.1665   32.5600 C   0  0  0  0  0  0  0  0  0  0  0  0
   -7.3772   11.5049   31.6761 C   0  0  0  0  0  0  0  0  0  0  0  0
   -6.2499   11.8127   32.5018 O   0  0  0  0  0  0  0  0  0  0  0  0
   -6.0143   11.0343   33.0305 H   0  0  0  0  0  0  0  0  0  0  0  0
   -5.3667    9.5940   32.2583 C   0  0  0  0  0  0  0  0  0  0  0  0
   -6.2997    9.2410   31.2008 N   0  0  0  0  0  0  0  0  0  0  0  0
   -6.9754    8.5768   31.5784 H   0  0  0  0  0  0  0  0  0  0  0  0
   -8.7503    6.4649   28.9291 C   0  0  0  0  0  0  0  0  0  0  0  0
   -9.2421    5.2005   29.6597 C   0  0  0  0  0  0  0  0  0  0  0  0
  -10.5860    5.3339   30.2410 N   0  0  0  0  0  0  0  0  0  0  0  0
  -10.5816    6.0760   30.9408 H   0  0  0  0  0  0  0  0  0  0  0  0
  -10.8551    4.4537   30.6806 H   0  0  0  0  0  0  0  0  0  0  0  0
   -8.2405    4.8928   30.7817 C   0  0  0  0  0  0  0  0  0  0  0  0
   -7.2682    5.5554   31.1117 O   0  0  0  0  0  0  0  0  0  0  0  0
   -8.4906    3.7135   31.3935 O   0  0  0  0  0  0  0  0  0  0  0  0
   -9.2356    3.2039   31.1420 H   0  0  0  0  0  0  0  0  0  0  0  0
  -10.5008    8.2824   28.4982 C   0  0  0  0  0  0  0  0  0  0  0  0
  -10.4925    9.5145   27.5060 C   0  0  0  0  0  0  0  0  0  0  0  0
  -10.9675   10.8064   28.1672 C   0  0  0  0  0  0  0  0  0  0  0  0
   -9.0539    9.7215   26.9834 C   0  0  0  0  0  0  0  0  0  0  0  0
  -11.4229    9.0892   26.3021 C   0  0  0  0  0  0  0  0  0  0  0  0
  -12.9061    9.5496   26.1140 C   0  0  0  0  0  0  0  0  0  0  0  0
  -13.0719   11.0676   26.3205 C   0  0  0  0  0  0  0  0  0  0  0  0
  -13.7313    8.8568   27.2301 C   0  0  0  0  0  0  0  0  0  0  0  0
  -13.5281    9.1477   24.7730 C   0  0  0  0  0  0  0  0  0  0  0  0
 12 13  1  0
  1 13  1  0
  1  2  1  0
  2  3  1  0
  3  4  1  0
  4 15  1  0
 15 16  1  0
 16 17  1  0
 16 20  1  0
 20 21  2  0
 20 22  1  0
  4 24  1  0
 24 25  1  0
 25 26  1  0
 25 27  1  0
 25 28  1  0
 28 29  1  0
 29 30  1  0
 29 31  1  0
 29 32  1  0
  4  5  1  0
  6  5  1  0
  6  7  1  0
  7  8  1  0
  8  9  1  0
  9 10  1  0
  9  1  1  0
  6  2  1  0
 13 14  1  0
 17 18  1  0
 17 19  1  0
 22 23  1  0
 10 11  1  0
M  END
> <minimizedAffinity>
-0.54665

> <CNNscore>
0.4468225837

> <CNNaffinity>
5.0201702118

> <CNN_VS>
2.2431254387

> <CNNaffinity_variance>
0.2414655536

$$$$



 32 33  0  0  0  0  0  0  0  0999 V2000
   -8.8647   13.4247   21.2415 C   0  0  0  0  0  0  0  0  0  0  0  0
   -8.7523   13.7721   22.7444 C   0  0  0  0  0  0  0  0  0  0  0  0
   -7.3846   13.7928   23.2171 O   0  0  0  0  0  0  0  0  0  0  0  0
   -7.2092   14.9778   24.0547 C   0  0  0  0  0  0  0  0  0  0  0  0
   -8.1673   15.9800   23.4204 C   0  0  0  0  0  0  0  0  0  0  0  0
   -9.3749   15.1298   23.0807 C   0  0  0  0  0  0  0  0  0  0  0  0
  -10.1252   15.7005   22.0089 O   0  0  0  0  0  0  0  0  0  0  0  0
  -11.0674   14.7598   21.4834 C   0  0  0  0  0  0  0  0  0  0  0  0
  -10.3725   13.5251   20.8724 C   0  0  0  0  0  0  0  0  0  0  0  0
  -10.5711   13.5087   19.4555 O   0  0  0  0  0  0  0  0  0  0  0  0
  -10.1597   14.2941   19.0622 H   0  0  0  0  0  0  0  0  0  0  0  0
   -7.1457   13.5911   19.4853 C   0  0  0  0  0  0  0  0  0  0  0  0
   -7.9807   14.3021   20.4396 N   0  0  0  0  0  0  0  0  0  0  0  0
   -8.5648   14.9613   19.9253 H   0  0  0  0  0  0  0  0  0  0  0  0
   -5.7130   15.3764   23.9860 C   0  0  0  0  0  0  0  0  0  0  0  0
   -5.2849   16.7433   24.5541 C   0  0  0  0  0  0  0  0  0  0  0  0
   -4.8536   17.7052   23.5293 N   0  0  0  0  0  0  0  0  0  0  0  0
   -4.0367   17.3384   23.0410 H   0  0  0  0  0  0  0  0  0  0  0  0
   -4.6144   18.5914   23.9740 H   0  0  0  0  0  0  0  0  0  0  0  0
   -4.1250   16.4986   25.5295 C   0  0  0  0  0  0  0  0  0  0  0  0
   -3.0897   15.8864   25.3138 O   0  0  0  0  0  0  0  0  0  0  0  0
   -4.3689   16.9950   26.7631 O   0  0  0  0  0  0  0  0  0  0  0  0
   -5.1622   17.4647   26.9307 H   0  0  0  0  0  0  0  0  0  0  0  0
   -7.5756   14.4971   25.5062 C   0  0  0  0  0  0  0  0  0  0  0  0
   -6.9414   13.2376   26.2232 C   0  0  0  0  0  0  0  0  0  0  0  0
   -5.8572   12.5658   25.3837 C   0  0  0  0  0  0  0  0  0  0  0  0
   -6.3249   13.6886   27.5656 C   0  0  0  0  0  0  0  0  0  0  0  0
   -8.1531   12.2658   26.5122 C   0  0  0  0  0  0  0  0  0  0  0  0
   -8.3400   11.4380   27.8263 C   0  0  0  0  0  0  0  0  0  0  0  0
   -9.1893   12.1904   28.8689 C   0  0  0  0  0  0  0  0  0  0  0  0
   -6.9286   11.2632   28.4458 C   0  0  0  0  0  0  0  0  0  0  0  0
   -8.9200   10.0362   27.6139 C   0  0  0  0  0  0  0  0  0  0  0  0
 12 13  1  0
  1 13  1  0
  1  2  1  0
  2  3  1  0
  3  4  1  0
  4 15  1  0
 15 16  1  0
 16 17  1  0
 16 20  1  0
 20 21  2  0
 20 22  1  0
  4 24  1  0
 24 25  1  0
 25 26  1  0
 25 27  1  0
 25 28  1  0
 28 29  1  0
 29 30  1  0
 29 31  1  0
 29 32  1  0
  4  5  1  0
  6  5  1  0
  6  7  1  0
  7  8  1  0
  8  9  1  0
  9 10  1  0
  9  1  1  0
  6  2  1  0
 13 14  1  0
 17 18  1  0
 17 19  1  0
 22 23  1  0
 10 11  1  0
M  END
> <minimizedAffinity>
8.26254

> <CNNscore>
0.3426824808

> <CNNaffinity>
6.3982510567

> <CNN_VS>
2.1925685406

> <CNNaffinity_variance>
0.3500796258

$$$$



 32 33  0  0  0  0  0  0  0  0999 V2000
   -8.4409   12.3664   20.8951 C   0  0  0  0  0  0  0  0  0  0  0  0
   -8.6483   13.8802   21.1349 C   0  0  0  0  0  0  0  0  0  0  0  0
   -7.4303   14.6469   20.9822 O   0  0  0  0  0  0  0  0  0  0  0  0
   -7.7396   15.8445   20.2034 C   0  0  0  0  0  0  0  0  0  0  0  0
   -8.8585   15.3659   19.2849 C   0  0  0  0  0  0  0  0  0  0  0  0
   -9.6929   14.4856   20.1935 C   0  0  0  0  0  0  0  0  0  0  0  0
  -10.4247   13.5152   19.4451 O   0  0  0  0  0  0  0  0  0  0  0  0
  -10.9557   12.4991   20.3022 C   0  0  0  0  0  0  0  0  0  0  0  0
   -9.8421   11.7008   21.0115 C   0  0  0  0  0  0  0  0  0  0  0  0
   -9.8282   10.3540   20.5286 O   0  0  0  0  0  0  0  0  0  0  0  0
   -9.6235   10.3526   19.5804 H   0  0  0  0  0  0  0  0  0  0  0  0
   -8.2571   10.9819   18.8663 C   0  0  0  0  0  0  0  0  0  0  0  0
   -7.7619   12.1357   19.5989 N   0  0  0  0  0  0  0  0  0  0  0  0
   -7.8913   12.9639   19.0177 H   0  0  0  0  0  0  0  0  0  0  0  0
   -6.4398   16.2721   19.4754 C   0  0  0  0  0  0  0  0  0  0  0  0
   -5.9738   15.4567   18.2538 C   0  0  0  0  0  0  0  0  0  0  0  0
   -6.3637   14.0399   18.3000 N   0  0  0  0  0  0  0  0  0  0  0  0
   -5.9347   13.5954   19.1116 H   0  0  0  0  0  0  0  0  0  0  0  0
   -6.0482   13.5725   17.4500 H   0  0  0  0  0  0  0  0  0  0  0  0
   -4.4430   15.5519   18.1880 C   0  0  0  0  0  0  0  0  0  0  0  0
   -3.7343   16.4417   18.6343 O   0  0  0  0  0  0  0  0  0  0  0  0
   -3.8875   14.5324   17.4953 O   0  0  0  0  0  0  0  0  0  0  0  0
   -4.4292   13.8491   17.1522 H   0  0  0  0  0  0  0  0  0  0  0  0
   -8.1405   16.9234   21.2746 C   0  0  0  0  0  0  0  0  0  0  0  0
   -9.3742   17.9049   21.1442 C   0  0  0  0  0  0  0  0  0  0  0  0
   -8.9544   19.3704   21.0573 C   0  0  0  0  0  0  0  0  0  0  0  0
  -10.1687   17.5374   19.8717 C   0  0  0  0  0  0  0  0  0  0  0  0
  -10.2716   17.6207   22.4131 C   0  0  0  0  0  0  0  0  0  0  0  0
  -11.2046   16.3771   22.5866 C   0  0  0  0  0  0  0  0  0  0  0  0
  -12.2463   16.5858   23.7027 C   0  0  0  0  0  0  0  0  0  0  0  0
  -10.2988   15.2017   23.0385 C   0  0  0  0  0  0  0  0  0  0  0  0
  -11.9155   15.9357   21.3034 C   0  0  0  0  0  0  0  0  0  0  0  0
 12 13  1  0
  1 13  1  0
  1  2  1  0
  2  3  1  0
  3  4  1  0
  4 15  1  0
 15 16  1  0
 16 17  1  0
 16 20  1  0
 20 21  2  0
 20 22  1  0
  4 24  1  0
 24 25  1  0
 25 26  1  0
 25 27  1  0
 25 28  1  0
 28 29  1  0
 29 30  1  0
 29 31  1  0
 29 32  1  0
  4  5  1  0
  6  5  1  0
  6  7  1  0
  7  8  1  0
  8  9  1  0
  9 10  1  0
  9  1  1  0
  6  2  1  0
 13 14  1  0
 17 18  1  0
 17 19  1  0
 22 23  1  0
 10 11  1  0
M  END
> <minimizedAffinity>
0.39023

> <CNNscore>
0.3374740183

> <CNNaffinity>
6.6065578461

> <CNN_VS>
2.2295415401

> <CNNaffinity_variance>
0.0021082757

$$$$



 32 33  0  0  0  0  0  0  0  0999 V2000
   -5.7433   11.6827   27.5356 C   0  0  0  0  0  0  0  0  0  0  0  0
   -7.1933   11.3686   27.0986 C   0  0  0  0  0  0  0  0  0  0  0  0
   -7.8356   10.3844   27.9432 O   0  0  0  0  0  0  0  0  0  0  0  0
   -9.1902   10.8488   28.2363 C   0  0  0  0  0  0  0  0  0  0  0  0
   -9.0292   12.3650   28.2436 C   0  0  0  0  0  0  0  0  0  0  0  0
   -8.0845   12.6135   27.0850 C   0  0  0  0  0  0  0  0  0  0  0  0
   -7.3680   13.8364   27.2540 O   0  0  0  0  0  0  0  0  0  0  0  0
   -6.2677   13.9174   26.3421 C   0  0  0  0  0  0  0  0  0  0  0  0
   -5.2268   12.8060   26.5915 C   0  0  0  0  0  0  0  0  0  0  0  0
   -4.0089   13.3819   27.0736 O   0  0  0  0  0  0  0  0  0  0  0  0
   -4.1723   13.8189   27.9240 H   0  0  0  0  0  0  0  0  0  0  0  0
   -4.4634   11.6488   29.6397 C   0  0  0  0  0  0  0  0  0  0  0  0
   -5.6996   12.0280   28.9754 N   0  0  0  0  0  0  0  0  0  0  0  0
   -5.8156   13.0373   29.0664 H   0  0  0  0  0  0  0  0  0  0  0  0
   -9.6069   10.2333   29.5963 C   0  0  0  0  0  0  0  0  0  0  0  0
   -8.6915    9.1743   30.2404 C   0  0  0  0  0  0  0  0  0  0  0  0
   -9.3651    7.8985   30.5240 N   0  0  0  0  0  0  0  0  0  0  0  0
  -10.1221    8.0543   31.1897 H   0  0  0  0  0  0  0  0  0  0  0  0
   -8.6940    7.2404   30.9201 H   0  0  0  0  0  0  0  0  0  0  0  0
   -8.1564    9.7598   31.5547 C   0  0  0  0  0  0  0  0  0  0  0  0
   -8.3632   10.8750   32.0096 O   0  0  0  0  0  0  0  0  0  0  0  0
   -7.3248    8.9126   32.2014 O   0  0  0  0  0  0  0  0  0  0  0  0
   -7.1648    8.0570   31.8543 H   0  0  0  0  0  0  0  0  0  0  0  0
  -10.0737   10.2547   27.0793 C   0  0  0  0  0  0  0  0  0  0  0  0
  -11.1420    9.1027   27.2647 C   0  0  0  0  0  0  0  0  0  0  0  0
  -10.5269    7.8082   27.7913 C   0  0  0  0  0  0  0  0  0  0  0  0
  -12.2219    9.5824   28.2592 C   0  0  0  0  0  0  0  0  0  0  0  0
  -11.8003    8.9089   25.8416 C   0  0  0  0  0  0  0  0  0  0  0  0
  -13.2675    9.3087   25.4746 C   0  0  0  0  0  0  0  0  0  0  0  0
  -14.3060    8.4866   26.2621 C   0  0  0  0  0  0  0  0  0  0  0  0
  -13.4632    8.9539   23.9772 C   0  0  0  0  0  0  0  0  0  0  0  0
  -13.5748   10.8011   25.6319 C   0  0  0  0  0  0  0  0  0  0  0  0
 12 13  1  0
  1 13  1  0
  1  2  1  0
  2  3  1  0
  3  4  1  0
  4 15  1  0
 15 16  1  0
 16 17  1  0
 16 20  1  0
 20 21  2  0
 20 22  1  0
  4 24  1  0
 24 25  1  0
 25 26  1  0
 25 27  1  0
 25 28  1  0
 28 29  1  0
 29 30  1  0
 29 31  1  0
 29 32  1  0
  4  5  1  0
  6  5  1  0
  6  7  1  0
  7  8  1  0
  8  9  1  0
  9 10  1  0
  9  1  1  0
  6  2  1  0
 13 14  1  0
 17 18  1  0
 17 19  1  0
 22 23  1  0
 10 11  1  0
M  END
> <minimizedAffinity>
7.43124

> <CNNscore>
0.3163825572

> <CNNaffinity>
4.6661281586

> <CNN_VS>
1.4762815237

> <CNNaffinity_variance>
0.3280880749

$$$$



 32 33  0  0  0  0  0  0  0  0999 V2000
   -8.0961   11.9258   19.9089 C   0  0  0  0  0  0  0  0  0  0  0  0
   -8.2522   13.1998   20.7718 C   0  0  0  0  0  0  0  0  0  0  0  0
   -7.0379   13.9839   20.8436 O   0  0  0  0  0  0  0  0  0  0  0  0
   -7.3915   15.3904   20.6617 C   0  0  0  0  0  0  0  0  0  0  0  0
   -8.5962   15.3142   19.7303 C   0  0  0  0  0  0  0  0  0  0  0  0
   -9.3640   14.1208   20.2622 C   0  0  0  0  0  0  0  0  0  0  0  0
  -10.1776   13.5340   19.2468 O   0  0  0  0  0  0  0  0  0  0  0  0
  -10.6504   12.2441   19.6490 C   0  0  0  0  0  0  0  0  0  0  0  0
   -9.4941   11.2450   19.8623 C   0  0  0  0  0  0  0  0  0  0  0  0
   -9.5489   10.2201   18.8655 O   0  0  0  0  0  0  0  0  0  0  0  0
   -9.4288   10.6156   17.9880 H   0  0  0  0  0  0  0  0  0  0  0  0
   -6.1429   12.6712   18.6066 C   0  0  0  0  0  0  0  0  0  0  0  0
   -7.5387   12.2660   18.5793 N   0  0  0  0  0  0  0  0  0  0  0  0
   -7.6226   11.4466   17.9776 H   0  0  0  0  0  0  0  0  0  0  0  0
   -6.1531   16.1061   20.0647 C   0  0  0  0  0  0  0  0  0  0  0  0
   -5.9534   16.0877   18.5369 C   0  0  0  0  0  0  0  0  0  0  0  0
   -6.7351   15.0512   17.8469 N   0  0  0  0  0  0  0  0  0  0  0  0
   -6.4452   14.1306   18.1768 H   0  0  0  0  0  0  0  0  0  0  0  0
   -6.5757   15.1179   16.8416 H   0  0  0  0  0  0  0  0  0  0  0  0
   -4.4610   15.8513   18.2661 C   0  0  0  0  0  0  0  0  0  0  0  0
   -3.9659   15.0976   17.4414 O   0  0  0  0  0  0  0  0  0  0  0  0
   -3.6629   16.5445   19.1089 O   0  0  0  0  0  0  0  0  0  0  0  0
   -4.0404   17.1230   19.7420 H   0  0  0  0  0  0  0  0  0  0  0  0
   -7.6754   15.9205   22.1146 C   0  0  0  0  0  0  0  0  0  0  0  0
   -8.7388   15.2985   23.1070 C   0  0  0  0  0  0  0  0  0  0  0  0
   -9.3196   13.9813   22.5978 C   0  0  0  0  0  0  0  0  0  0  0  0
   -8.0586   15.0494   24.4711 C   0  0  0  0  0  0  0  0  0  0  0  0
   -9.8503   16.4079   23.2792 C   0  0  0  0  0  0  0  0  0  0  0  0
  -10.8792   16.8199   22.1752 C   0  0  0  0  0  0  0  0  0  0  0  0
  -10.2282   17.6644   21.0628 C   0  0  0  0  0  0  0  0  0  0  0  0
  -11.9307   17.7284   22.8648 C   0  0  0  0  0  0  0  0  0  0  0  0
  -11.6358   15.6460   21.5458 C   0  0  0  0  0  0  0  0  0  0  0  0
 12 13  1  0
  1 13  1  0
  1  2  1  0
  2  3  1  0
  3  4  1  0
  4 15  1  0
 15 16  1  0
 16 17  1  0
 16 20  1  0
 20 21  2  0
 20 22  1  0
  4 24  1  0
 24 25  1  0
 25 26  1  0
 25 27  1  0
 25 28  1  0
 28 29  1  0
 29 30  1  0
 29 31  1  0
 29 32  1  0
  4  5  1  0
  6  5  1  0
  6  7  1  0
  7  8  1  0
  8  9  1  0
  9 10  1  0
  9  1  1  0
  6  2  1  0
 13 14  1  0
 17 18  1  0
 17 19  1  0
 22 23  1  0
 10 11  1  0
M  END
> <minimizedAffinity>
1.74399

> <CNNscore>
0.2457882315

> <CNNaffinity>
6.3972353935

> <CNN_VS>
1.5723651648

> <CNNaffinity_variance>
0.1442224383

$$$$
