


 26 29  0  0  0  0  0  0  0  0999 V2000
   -2.4536    3.5370   24.2155 C   0  0  0  0  0  0  0  0  0  0  0  0
   -2.5361    2.1491   24.1735 C   0  0  0  0  0  0  0  0  0  0  0  0
   -2.8223    1.4639   22.9772 C   0  0  0  0  0  0  0  0  0  0  0  0
   -3.0185    2.2382   21.8274 C   0  0  0  0  0  0  0  0  0  0  0  0
   -2.9576    3.5878   21.8912 N   0  0  0  0  0  0  0  0  0  0  0  0
   -2.6830    4.2281   23.0829 N   0  0  0  0  0  0  0  0  0  0  0  0
   -3.3123    1.7114   20.4820 C   0  0  0  0  0  0  0  0  0  0  0  0
   -2.2825    1.5678   19.5383 C   0  0  0  0  0  0  0  0  0  0  0  0
   -2.5382    1.0799   18.2535 C   0  0  0  0  0  0  0  0  0  0  0  0
   -3.8360    0.7142   17.8737 C   0  0  0  0  0  0  0  0  0  0  0  0
   -4.1110    0.2274   16.5859 C   0  0  0  0  0  0  0  0  0  0  0  0
   -5.4106   -0.1318   16.2324 C   0  0  0  0  0  0  0  0  0  0  0  0
   -5.7321   -0.7256   14.6493 Cl  0  0  0  0  0  0  0  0  0  0  0  0
   -6.4505   -0.0138   17.1491 C   0  0  0  0  0  0  0  0  0  0  0  0
   -6.1893    0.4675   18.4335 C   0  0  0  0  0  0  0  0  0  0  0  0
   -4.8872    0.8356   18.8103 C   0  0  0  0  0  0  0  0  0  0  0  0
   -4.6088    1.3223   20.1001 C   0  0  0  0  0  0  0  0  0  0  0  0
   -2.9352   -0.0051   23.0094 C   0  0  0  0  0  0  0  0  0  0  0  0
   -2.1454   -0.8146   22.1844 C   0  0  0  0  0  0  0  0  0  0  0  0
   -2.2885   -2.1910   22.2593 C   0  0  0  0  0  0  0  0  0  0  0  0
   -3.1593   -2.8111   23.0823 N   0  0  0  0  0  0  0  0  0  0  0  0
   -3.9210   -2.0206   23.8646 C   0  0  0  0  0  0  0  0  0  0  0  0
   -3.8482   -0.6366   23.8636 C   0  0  0  0  0  0  0  0  0  0  0  0
   -2.6561    3.4370   26.5979 C   0  0  0  0  0  0  0  0  0  0  0  0
   -2.1831    4.1948   25.4366 N   0  0  0  0  0  0  0  0  0  0  0  0
   -2.5968    5.5983   25.4325 C   0  0  0  0  0  0  0  0  0  0  0  0
 24 25  1  0
 25 26  1  0
 25  1  1  0
  1  2  2  0
  2  3  1  0
  3 18  1  0
 18 19  2  0
 19 20  1  0
 20 21  2  0
 21 22  1  0
 22 23  2  0
  3  4  2  0
  4  7  1  0
  7  8  2  0
  8  9  1  0
  9 10  2  0
 10 11  1  0
 11 12  2  0
 12 13  1  0
 12 14  1  0
 14 15  2  0
 15 16  1  0
 16 17  2  0
  4  5  1  0
  5  6  2  0
  6  1  1  0
 23 18  1  0
 17  7  1  0
 16 10  1  0
M  END
> <minimizedAffinity>
-9.62473

> <CNNscore>
0.9818286300

> <CNNaffinity>
7.6177172661

> <CNN_VS>
7.4792928696

> <CNNaffinity_variance>
0.0170765650

$$$$



 26 29  0  0  0  0  0  0  0  0999 V2000
   -1.1245    3.2475   23.4540 C   0  0  0  0  0  0  0  0  0  0  0  0
   -1.4813    1.9071   23.5595 C   0  0  0  0  0  0  0  0  0  0  0  0
   -2.2572    1.2713   22.5714 C   0  0  0  0  0  0  0  0  0  0  0  0
   -2.6540    2.0442   21.4736 C   0  0  0  0  0  0  0  0  0  0  0  0
   -2.3177    3.3522   21.3987 N   0  0  0  0  0  0  0  0  0  0  0  0
   -1.5628    3.9464   22.3899 N   0  0  0  0  0  0  0  0  0  0  0  0
   -3.4534    1.5615   20.3326 C   0  0  0  0  0  0  0  0  0  0  0  0
   -4.8062    1.2286   20.5074 C   0  0  0  0  0  0  0  0  0  0  0  0
   -5.5818    0.7596   19.4430 C   0  0  0  0  0  0  0  0  0  0  0  0
   -5.0268    0.6139   18.1651 C   0  0  0  0  0  0  0  0  0  0  0  0
   -5.7901    0.1394   17.0865 C   0  0  0  0  0  0  0  0  0  0  0  0
   -5.2155    0.0048   15.8236 C   0  0  0  0  0  0  0  0  0  0  0  0
   -6.1638   -0.5796   14.5116 Cl  0  0  0  0  0  0  0  0  0  0  0  0
   -3.8812    0.3389   15.6150 C   0  0  0  0  0  0  0  0  0  0  0  0
   -3.1123    0.8134   16.6795 C   0  0  0  0  0  0  0  0  0  0  0  0
   -3.6712    0.9562   17.9603 C   0  0  0  0  0  0  0  0  0  0  0  0
   -2.9092    1.4325   19.0422 C   0  0  0  0  0  0  0  0  0  0  0  0
   -2.6343   -0.1403   22.7635 C   0  0  0  0  0  0  0  0  0  0  0  0
   -3.5154   -0.5269   23.7802 C   0  0  0  0  0  0  0  0  0  0  0  0
   -3.8404   -1.8676   23.9127 C   0  0  0  0  0  0  0  0  0  0  0  0
   -3.3484   -2.8408   23.1185 N   0  0  0  0  0  0  0  0  0  0  0  0
   -2.4934   -2.4573   22.1495 C   0  0  0  0  0  0  0  0  0  0  0  0
   -2.1111   -1.1423   21.9364 C   0  0  0  0  0  0  0  0  0  0  0  0
    0.9953    3.3133   24.5624 C   0  0  0  0  0  0  0  0  0  0  0  0
   -0.3608    3.8604   24.4728 N   0  0  0  0  0  0  0  0  0  0  0  0
   -1.0642    3.9218   25.7544 C   0  0  0  0  0  0  0  0  0  0  0  0
 24 25  1  0
 25 26  1  0
 25  1  1  0
  1  2  2  0
  2  3  1  0
  3 18  1  0
 18 19  2  0
 19 20  1  0
 20 21  2  0
 21 22  1  0
 22 23  2  0
  3  4  2  0
  4  7  1  0
  7  8  2  0
  8  9  1  0
  9 10  2  0
 10 11  1  0
 11 12  2  0
 12 13  1  0
 12 14  1  0
 14 15  2  0
 15 16  1  0
 16 17  2  0
  4  5  1  0
  5  6  2  0
  6  1  1  0
 23 18  1  0
 17  7  1  0
 16 10  1  0
M  END
> <minimizedAffinity>
-9.04939

> <CNNscore>
0.9743909836

> <CNNaffinity>
7.6023116112

> <CNN_VS>
7.4076237679

> <CNNaffinity_variance>
0.0054819225

$$$$



 26 29  0  0  0  0  0  0  0  0999 V2000
   -1.3257    0.3174   24.9281 C   0  0  0  0  0  0  0  0  0  0  0  0
   -1.2964    1.5443   24.2732 C   0  0  0  0  0  0  0  0  0  0  0  0
   -1.9189    1.7274   23.0236 C   0  0  0  0  0  0  0  0  0  0  0  0
   -2.5730    0.6221   22.4663 C   0  0  0  0  0  0  0  0  0  0  0  0
   -2.5716   -0.5695   23.1061 N   0  0  0  0  0  0  0  0  0  0  0  0
   -1.9440   -0.7165   24.3267 N   0  0  0  0  0  0  0  0  0  0  0  0
   -3.2932    0.6143   21.1798 C   0  0  0  0  0  0  0  0  0  0  0  0
   -4.6959    0.5565   21.1549 C   0  0  0  0  0  0  0  0  0  0  0  0
   -5.4003    0.5381   19.9475 C   0  0  0  0  0  0  0  0  0  0  0  0
   -4.7205    0.5825   18.7235 C   0  0  0  0  0  0  0  0  0  0  0  0
   -5.4123    0.5596   17.5020 C   0  0  0  0  0  0  0  0  0  0  0  0
   -4.7132    0.6066   16.2969 C   0  0  0  0  0  0  0  0  0  0  0  0
   -5.5753    0.5763   14.8076 Cl  0  0  0  0  0  0  0  0  0  0  0  0
   -3.3238    0.6777   16.2881 C   0  0  0  0  0  0  0  0  0  0  0  0
   -2.6247    0.7027   17.4965 C   0  0  0  0  0  0  0  0  0  0  0  0
   -3.3094    0.6557   18.7222 C   0  0  0  0  0  0  0  0  0  0  0  0
   -2.6189    0.6798   19.9473 C   0  0  0  0  0  0  0  0  0  0  0  0
   -1.8163    3.0415   22.3646 C   0  0  0  0  0  0  0  0  0  0  0  0
   -2.7639    4.0464   22.5922 C   0  0  0  0  0  0  0  0  0  0  0  0
   -2.6162    5.2658   21.9505 C   0  0  0  0  0  0  0  0  0  0  0  0
   -1.6075    5.5490   21.1005 N   0  0  0  0  0  0  0  0  0  0  0  0
   -0.7070    4.5700   20.8819 C   0  0  0  0  0  0  0  0  0  0  0  0
   -0.7679    3.3207   21.4787 C   0  0  0  0  0  0  0  0  0  0  0  0
   -0.2204   -1.2120   26.3999 C   0  0  0  0  0  0  0  0  0  0  0  0
   -0.6747    0.1622   26.1728 N   0  0  0  0  0  0  0  0  0  0  0  0
   -1.4324    0.7311   27.2878 C   0  0  0  0  0  0  0  0  0  0  0  0
 24 25  1  0
 25 26  1  0
 25  1  1  0
  1  2  2  0
  2  3  1  0
  3 18  1  0
 18 19  2  0
 19 20  1  0
 20 21  2  0
 21 22  1  0
 22 23  2  0
  3  4  2  0
  4  7  1  0
  7  8  2  0
  8  9  1  0
  9 10  2  0
 10 11  1  0
 11 12  2  0
 12 13  1  0
 12 14  1  0
 14 15  2  0
 15 16  1  0
 16 17  2  0
  4  5  1  0
  5  6  2  0
  6  1  1  0
 23 18  1  0
 17  7  1  0
 16 10  1  0
M  END
> <minimizedAffinity>
-8.56153

> <CNNscore>
0.7944390774

> <CNNaffinity>
6.9090151787

> <CNN_VS>
5.4887914658

> <CNNaffinity_variance>
0.0823459476

$$$$



 26 29  0  0  0  0  0  0  0  0999 V2000
   -2.0035    1.1615   25.3028 C   0  0  0  0  0  0  0  0  0  0  0  0
   -1.8895    2.3351   24.5647 C   0  0  0  0  0  0  0  0  0  0  0  0
   -2.2144    2.3786   23.1953 C   0  0  0  0  0  0  0  0  0  0  0  0
   -2.6609    1.1900   22.6054 C   0  0  0  0  0  0  0  0  0  0  0  0
   -2.7435    0.0527   23.3326 N   0  0  0  0  0  0  0  0  0  0  0  0
   -2.4088    0.0433   24.6718 N   0  0  0  0  0  0  0  0  0  0  0  0
   -3.0619    1.0338   21.1952 C   0  0  0  0  0  0  0  0  0  0  0  0
   -2.1233    1.2218   20.1680 C   0  0  0  0  0  0  0  0  0  0  0  0
   -2.4821    1.0887   18.8234 C   0  0  0  0  0  0  0  0  0  0  0  0
   -3.7949    0.7571   18.4643 C   0  0  0  0  0  0  0  0  0  0  0  0
   -4.1733    0.6246   17.1188 C   0  0  0  0  0  0  0  0  0  0  0  0
   -5.4856    0.2919   16.7867 C   0  0  0  0  0  0  0  0  0  0  0  0
   -5.9345    0.1346   15.1327 Cl  0  0  0  0  0  0  0  0  0  0  0  0
   -6.4358    0.0861   17.7817 C   0  0  0  0  0  0  0  0  0  0  0  0
   -6.0712    0.2133   19.1236 C   0  0  0  0  0  0  0  0  0  0  0  0
   -4.7546    0.5484   19.4802 C   0  0  0  0  0  0  0  0  0  0  0  0
   -4.3726    0.6803   20.8274 C   0  0  0  0  0  0  0  0  0  0  0  0
   -2.0331    3.6440   22.4620 C   0  0  0  0  0  0  0  0  0  0  0  0
   -0.8541    3.9152   21.7578 C   0  0  0  0  0  0  0  0  0  0  0  0
   -0.7386    5.1189   21.0809 C   0  0  0  0  0  0  0  0  0  0  0  0
   -1.7002    6.0650   21.0632 N   0  0  0  0  0  0  0  0  0  0  0  0
   -2.8267    5.7964   21.7530 C   0  0  0  0  0  0  0  0  0  0  0  0
   -3.0365    4.6212   22.4572 C   0  0  0  0  0  0  0  0  0  0  0  0
   -1.9777    2.4057   27.3469 C   0  0  0  0  0  0  0  0  0  0  0  0
   -1.6511    1.1474   26.6713 N   0  0  0  0  0  0  0  0  0  0  0  0
   -0.2825    0.6845   26.9032 C   0  0  0  0  0  0  0  0  0  0  0  0
 24 25  1  0
 25 26  1  0
 25  1  1  0
  1  2  2  0
  2  3  1  0
  3 18  1  0
 18 19  2  0
 19 20  1  0
 20 21  2  0
 21 22  1  0
 22 23  2  0
  3  4  2  0
  4  7  1  0
  7  8  2  0
  8  9  1  0
  9 10  2  0
 10 11  1  0
 11 12  2  0
 12 13  1  0
 12 14  1  0
 14 15  2  0
 15 16  1  0
 16 17  2  0
  4  5  1  0
  5  6  2  0
  6  1  1  0
 23 18  1  0
 17  7  1  0
 16 10  1  0
M  END
> <minimizedAffinity>
-8.87417

> <CNNscore>
0.7669320703

> <CNNaffinity>
6.7319207191

> <CNN_VS>
5.1629257202

> <CNNaffinity_variance>
0.0339881293

$$$$



 26 29  0  0  0  0  0  0  0  0999 V2000
   -3.9235    0.5919   18.1262 C   0  0  0  0  0  0  0  0  0  0  0  0
   -4.0428   -0.0944   19.3303 C   0  0  0  0  0  0  0  0  0  0  0  0
   -3.2851    0.2650   20.4614 C   0  0  0  0  0  0  0  0  0  0  0  0
   -2.4060    1.3461   20.3256 C   0  0  0  0  0  0  0  0  0  0  0  0
   -2.2856    1.9872   19.1407 N   0  0  0  0  0  0  0  0  0  0  0  0
   -3.0380    1.6032   18.0490 N   0  0  0  0  0  0  0  0  0  0  0  0
   -1.5405    1.8831   21.3917 C   0  0  0  0  0  0  0  0  0  0  0  0
   -1.1940    1.0825   22.4919 C   0  0  0  0  0  0  0  0  0  0  0  0
   -0.3831    1.5727   23.5196 C   0  0  0  0  0  0  0  0  0  0  0  0
    0.1123    2.8822   23.4753 C   0  0  0  0  0  0  0  0  0  0  0  0
    0.9237    3.3919   24.5015 C   0  0  0  0  0  0  0  0  0  0  0  0
    1.4061    4.6980   24.4336 C   0  0  0  0  0  0  0  0  0  0  0  0
    2.3984    5.3090   25.7002 Cl  0  0  0  0  0  0  0  0  0  0  0  0
    1.0916    5.5121   23.3502 C   0  0  0  0  0  0  0  0  0  0  0  0
    0.2869    5.0160   22.3226 C   0  0  0  0  0  0  0  0  0  0  0  0
   -0.2102    3.7031   22.3713 C   0  0  0  0  0  0  0  0  0  0  0  0
   -1.0221    3.1896   21.3440 C   0  0  0  0  0  0  0  0  0  0  0  0
   -3.4297   -0.5285   21.6948 C   0  0  0  0  0  0  0  0  0  0  0  0
   -4.1418   -0.0394   22.7962 C   0  0  0  0  0  0  0  0  0  0  0  0
   -4.2512   -0.8299   23.9292 C   0  0  0  0  0  0  0  0  0  0  0  0
   -3.7001   -2.0558   24.0448 N   0  0  0  0  0  0  0  0  0  0  0  0
   -3.0086   -2.5116   22.9813 C   0  0  0  0  0  0  0  0  0  0  0  0
   -2.8467   -1.7973   21.8047 C   0  0  0  0  0  0  0  0  0  0  0  0
   -4.2297    0.8272   15.7645 C   0  0  0  0  0  0  0  0  0  0  0  0
   -4.6851    0.1936   17.0044 N   0  0  0  0  0  0  0  0  0  0  0  0
   -6.1274    0.2933   17.2296 C   0  0  0  0  0  0  0  0  0  0  0  0
 24 25  1  0
 25 26  1  0
 25  1  1  0
  1  2  2  0
  2  3  1  0
  3 18  1  0
 18 19  2  0
 19 20  1  0
 20 21  2  0
 21 22  1  0
 22 23  2  0
  3  4  2  0
  4  7  1  0
  7  8  2  0
  8  9  1  0
  9 10  2  0
 10 11  1  0
 11 12  2  0
 12 13  1  0
 12 14  1  0
 14 15  2  0
 15 16  1  0
 16 17  2  0
  4  5  1  0
  5  6  2  0
  6  1  1  0
 23 18  1  0
 17  7  1  0
 16 10  1  0
M  END
> <minimizedAffinity>
-8.62513

> <CNNscore>
0.3832846582

> <CNNaffinity>
6.6999511719

> <CNN_VS>
2.5679883957

> <CNNaffinity_variance>
0.0821521059

$$$$



 26 29  0  0  0  0  0  0  0  0999 V2000
   -4.4516    0.6607   18.6945 C   0  0  0  0  0  0  0  0  0  0  0  0
   -3.6610    1.6532   19.2644 C   0  0  0  0  0  0  0  0  0  0  0  0
   -3.1146    1.5099   20.5542 C   0  0  0  0  0  0  0  0  0  0  0  0
   -3.3979    0.3233   21.2410 C   0  0  0  0  0  0  0  0  0  0  0  0
   -4.1877   -0.6211   20.6809 N   0  0  0  0  0  0  0  0  0  0  0  0
   -4.7141   -0.4446   19.4171 N   0  0  0  0  0  0  0  0  0  0  0  0
   -2.9100   -0.0215   22.5890 C   0  0  0  0  0  0  0  0  0  0  0  0
   -3.7629   -0.6497   23.5106 C   0  0  0  0  0  0  0  0  0  0  0  0
   -3.3260   -0.9774   24.7975 C   0  0  0  0  0  0  0  0  0  0  0  0
   -2.0158   -0.6901   25.2015 C   0  0  0  0  0  0  0  0  0  0  0  0
   -1.5626   -1.0077   26.4917 C   0  0  0  0  0  0  0  0  0  0  0  0
   -0.2534   -0.7135   26.8695 C   0  0  0  0  0  0  0  0  0  0  0  0
    0.2871   -1.1076   28.4553 Cl  0  0  0  0  0  0  0  0  0  0  0  0
    0.6201   -0.1034   25.9750 C   0  0  0  0  0  0  0  0  0  0  0  0
    0.1815    0.2158   24.6884 C   0  0  0  0  0  0  0  0  0  0  0  0
   -1.1337   -0.0714   24.2873 C   0  0  0  0  0  0  0  0  0  0  0  0
   -1.5900    0.2445   22.9949 C   0  0  0  0  0  0  0  0  0  0  0  0
   -2.3188    2.6159   21.1156 C   0  0  0  0  0  0  0  0  0  0  0  0
   -2.8220    3.4299   22.1372 C   0  0  0  0  0  0  0  0  0  0  0  0
   -2.0288    4.4527   22.6324 C   0  0  0  0  0  0  0  0  0  0  0  0
   -0.7869    4.7248   22.1809 N   0  0  0  0  0  0  0  0  0  0  0  0
   -0.3174    3.9403   21.1904 C   0  0  0  0  0  0  0  0  0  0  0  0
   -1.0332    2.8924   20.6332 C   0  0  0  0  0  0  0  0  0  0  0  0
   -6.2382    0.0855   17.2098 C   0  0  0  0  0  0  0  0  0  0  0  0
   -5.0002    0.8442   17.4051 N   0  0  0  0  0  0  0  0  0  0  0  0
   -4.0171    0.6656   16.3362 C   0  0  0  0  0  0  0  0  0  0  0  0
 24 25  1  0
 25 26  1  0
 25  1  1  0
  1  2  2  0
  2  3  1  0
  3 18  1  0
 18 19  2  0
 19 20  1  0
 20 21  2  0
 21 22  1  0
 22 23  2  0
  3  4  2  0
  4  7  1  0
  7  8  2  0
  8  9  1  0
  9 10  2  0
 10 11  1  0
 11 12  2  0
 12 13  1  0
 12 14  1  0
 14 15  2  0
 15 16  1  0
 16 17  2  0
  4  5  1  0
  5  6  2  0
  6  1  1  0
 23 18  1  0
 17  7  1  0
 16 10  1  0
M  END
> <minimizedAffinity>
-7.39882

> <CNNscore>
0.2500692904

> <CNNaffinity>
6.3997826576

> <CNN_VS>
1.6003891230

> <CNNaffinity_variance>
0.0738299787

$$$$



 26 29  0  0  0  0  0  0  0  0999 V2000
   -3.5707    0.1616   19.1607 C   0  0  0  0  0  0  0  0  0  0  0  0
   -3.0990    1.3540   19.6997 C   0  0  0  0  0  0  0  0  0  0  0  0
   -2.4747    1.3963   20.9612 C   0  0  0  0  0  0  0  0  0  0  0  0
   -2.3453    0.1855   21.6520 C   0  0  0  0  0  0  0  0  0  0  0  0
   -2.8306   -0.9608   21.1231 N   0  0  0  0  0  0  0  0  0  0  0  0
   -3.4449   -0.9651   19.8870 N   0  0  0  0  0  0  0  0  0  0  0  0
   -1.7118    0.0186   22.9729 C   0  0  0  0  0  0  0  0  0  0  0  0
   -0.4112    0.4969   23.1990 C   0  0  0  0  0  0  0  0  0  0  0  0
    0.2139    0.3417   24.4397 C   0  0  0  0  0  0  0  0  0  0  0  0
   -0.4477   -0.2946   25.4979 C   0  0  0  0  0  0  0  0  0  0  0  0
    0.1674   -0.4633   26.7487 C   0  0  0  0  0  0  0  0  0  0  0  0
   -0.5125   -1.0982   27.7868 C   0  0  0  0  0  0  0  0  0  0  0  0
    0.2555   -1.2989   29.3139 Cl  0  0  0  0  0  0  0  0  0  0  0  0
   -1.8071   -1.5714   27.5985 C   0  0  0  0  0  0  0  0  0  0  0  0
   -2.4301   -1.4080   26.3596 C   0  0  0  0  0  0  0  0  0  0  0  0
   -1.7629   -0.7717   25.2998 C   0  0  0  0  0  0  0  0  0  0  0  0
   -2.3773   -0.6001   24.0463 C   0  0  0  0  0  0  0  0  0  0  0  0
   -2.0335    2.6983   21.4922 C   0  0  0  0  0  0  0  0  0  0  0  0
   -0.8907    3.3373   20.9971 C   0  0  0  0  0  0  0  0  0  0  0  0
   -0.5240    4.5634   21.5290 C   0  0  0  0  0  0  0  0  0  0  0  0
   -1.2025    5.1869   22.5142 N   0  0  0  0  0  0  0  0  0  0  0  0
   -2.2954    4.5571   22.9894 C   0  0  0  0  0  0  0  0  0  0  0  0
   -2.7430    3.3321   22.5202 C   0  0  0  0  0  0  0  0  0  0  0  0
   -3.4624    0.9113   16.8907 C   0  0  0  0  0  0  0  0  0  0  0  0
   -4.2094    0.1569   17.9001 N   0  0  0  0  0  0  0  0  0  0  0  0
   -5.6277    0.5085   17.9779 C   0  0  0  0  0  0  0  0  0  0  0  0
 24 25  1  0
 25 26  1  0
 25  1  1  0
  1  2  2  0
  2  3  1  0
  3 18  1  0
 18 19  2  0
 19 20  1  0
 20 21  2  0
 21 22  1  0
 22 23  2  0
  3  4  2  0
  4  7  1  0
  7  8  2  0
  8  9  1  0
  9 10  2  0
 10 11  1  0
 11 12  2  0
 12 13  1  0
 12 14  1  0
 14 15  2  0
 15 16  1  0
 16 17  2  0
  4  5  1  0
  5  6  2  0
  6  1  1  0
 23 18  1  0
 17  7  1  0
 16 10  1  0
M  END
> <minimizedAffinity>
-7.02945

> <CNNscore>
0.2440826595

> <CNNaffinity>
6.4292073250

> <CNN_VS>
1.5692579746

> <CNNaffinity_variance>
0.0066347490

$$$$



 26 29  0  0  0  0  0  0  0  0999 V2000
    0.7400    3.2124   29.1515 C   0  0  0  0  0  0  0  0  0  0  0  0
    0.5528    3.8865   27.9492 C   0  0  0  0  0  0  0  0  0  0  0  0
    0.2533    3.1986   26.7577 C   0  0  0  0  0  0  0  0  0  0  0  0
    0.1485    1.8045   26.8327 C   0  0  0  0  0  0  0  0  0  0  0  0
    0.3565    1.1635   28.0053 N   0  0  0  0  0  0  0  0  0  0  0  0
    0.6570    1.8685   29.1534 N   0  0  0  0  0  0  0  0  0  0  0  0
   -0.1708    0.9095   25.7053 C   0  0  0  0  0  0  0  0  0  0  0  0
    0.8597    0.2882   24.9818 C   0  0  0  0  0  0  0  0  0  0  0  0
    0.5822   -0.5566   23.9031 C   0  0  0  0  0  0  0  0  0  0  0  0
   -0.7402   -0.8107   23.5170 C   0  0  0  0  0  0  0  0  0  0  0  0
   -1.0364   -1.6522   22.4330 C   0  0  0  0  0  0  0  0  0  0  0  0
   -2.3607   -1.8911   22.0693 C   0  0  0  0  0  0  0  0  0  0  0  0
   -2.7076   -2.9240   20.7371 Cl  0  0  0  0  0  0  0  0  0  0  0  0
   -3.4046   -1.3010   22.7745 C   0  0  0  0  0  0  0  0  0  0  0  0
   -3.1229   -0.4634   23.8556 C   0  0  0  0  0  0  0  0  0  0  0  0
   -1.7956   -0.2087   24.2385 C   0  0  0  0  0  0  0  0  0  0  0  0
   -1.4963    0.6328   25.3249 C   0  0  0  0  0  0  0  0  0  0  0  0
    0.1066    3.9692   25.5101 C   0  0  0  0  0  0  0  0  0  0  0  0
    1.2035    4.2258   24.6793 C   0  0  0  0  0  0  0  0  0  0  0  0
    1.0081    4.9511   23.5147 C   0  0  0  0  0  0  0  0  0  0  0  0
   -0.1878    5.4412   23.1278 N   0  0  0  0  0  0  0  0  0  0  0  0
   -1.2345    5.1959   23.9411 C   0  0  0  0  0  0  0  0  0  0  0  0
   -1.1395    4.4785   25.1231 C   0  0  0  0  0  0  0  0  0  0  0  0
    1.6128    5.2566   30.0381 C   0  0  0  0  0  0  0  0  0  0  0  0
    1.0581    3.9315   30.3257 N   0  0  0  0  0  0  0  0  0  0  0  0
    1.8474    3.1491   31.2776 C   0  0  0  0  0  0  0  0  0  0  0  0
 24 25  1  0
 25 26  1  0
 25  1  1  0
  1  2  2  0
  2  3  1  0
  3 18  1  0
 18 19  2  0
 19 20  1  0
 20 21  2  0
 21 22  1  0
 22 23  2  0
  3  4  2  0
  4  7  1  0
  7  8  2  0
  8  9  1  0
  9 10  2  0
 10 11  1  0
 11 12  2  0
 12 13  1  0
 12 14  1  0
 14 15  2  0
 15 16  1  0
 16 17  2  0
  4  5  1  0
  5  6  2  0
  6  1  1  0
 23 18  1  0
 17  7  1  0
 16 10  1  0
M  END
> <minimizedAffinity>
-6.42913

> <CNNscore>
0.2096356750

> <CNNaffinity>
5.6430740356

> <CNN_VS>
1.1829895973

> <CNNaffinity_variance>
0.1170033589

$$$$



 26 29  0  0  0  0  0  0  0  0999 V2000
    0.9530    6.3452   19.5907 C   0  0  0  0  0  0  0  0  0  0  0  0
    0.0359    6.5370   20.6188 C   0  0  0  0  0  0  0  0  0  0  0  0
   -0.7084    5.4669   21.1514 C   0  0  0  0  0  0  0  0  0  0  0  0
   -0.4853    4.1975   20.6044 C   0  0  0  0  0  0  0  0  0  0  0  0
    0.3932    4.0332   19.5893 N   0  0  0  0  0  0  0  0  0  0  0  0
    1.1005    5.1061   19.0851 N   0  0  0  0  0  0  0  0  0  0  0  0
   -1.1511    2.9535   21.0323 C   0  0  0  0  0  0  0  0  0  0  0  0
   -1.8526    2.1706   20.1015 C   0  0  0  0  0  0  0  0  0  0  0  0
   -2.4999    0.9924   20.4853 C   0  0  0  0  0  0  0  0  0  0  0  0
   -2.4604    0.5571   21.8162 C   0  0  0  0  0  0  0  0  0  0  0  0
   -3.1093   -0.6208   22.2195 C   0  0  0  0  0  0  0  0  0  0  0  0
   -3.0538   -1.0343   23.5495 C   0  0  0  0  0  0  0  0  0  0  0  0
   -3.8556   -2.4798   24.0289 Cl  0  0  0  0  0  0  0  0  0  0  0  0
   -2.3556   -0.2876   24.4932 C   0  0  0  0  0  0  0  0  0  0  0  0
   -1.7049    0.8848   24.1039 C   0  0  0  0  0  0  0  0  0  0  0  0
   -1.7485    1.3199   22.7690 C   0  0  0  0  0  0  0  0  0  0  0  0
   -1.0982    2.4988   22.3621 C   0  0  0  0  0  0  0  0  0  0  0  0
   -1.6928    5.7446   22.2122 C   0  0  0  0  0  0  0  0  0  0  0  0
   -1.2982    5.9235   23.5433 C   0  0  0  0  0  0  0  0  0  0  0  0
   -2.2652    6.1878   24.5002 C   0  0  0  0  0  0  0  0  0  0  0  0
   -3.5838    6.2770   24.2295 N   0  0  0  0  0  0  0  0  0  0  0  0
   -3.9523    6.0932   22.9459 C   0  0  0  0  0  0  0  0  0  0  0  0
   -3.0600    5.8279   21.9192 C   0  0  0  0  0  0  0  0  0  0  0  0
    0.8117    8.3699   18.3230 C   0  0  0  0  0  0  0  0  0  0  0  0
    1.6701    7.4440   19.0660 N   0  0  0  0  0  0  0  0  0  0  0  0
    2.8794    7.0444   18.3455 C   0  0  0  0  0  0  0  0  0  0  0  0
 24 25  1  0
 25 26  1  0
 25  1  1  0
  1  2  2  0
  2  3  1  0
  3 18  1  0
 18 19  2  0
 19 20  1  0
 20 21  2  0
 21 22  1  0
 22 23  2  0
  3  4  2  0
  4  7  1  0
  7  8  2  0
  8  9  1  0
  9 10  2  0
 10 11  1  0
 11 12  2  0
 12 13  1  0
 12 14  1  0
 14 15  2  0
 15 16  1  0
 16 17  2  0
  4  5  1  0
  5  6  2  0
  6  1  1  0
 23 18  1  0
 17  7  1  0
 16 10  1  0
M  END
> <minimizedAffinity>
-7.90533

> <CNNscore>
0.1894764155

> <CNNaffinity>
5.7964668274

> <CNN_VS>
1.0982937813

> <CNNaffinity_variance>
0.2720148265

$$$$
