


 32 34  0  0  0  0  0  0  0  0999 V2000
   46.2478   15.0153    3.3142 C   0  0  0  0  0  0  0  0  0  0  0  0
   45.2773   15.9179    2.9157 C   0  0  0  0  0  0  0  0  0  0  0  0
   44.4896   15.3677    1.4882 S   0  0  0  0  0  0  0  0  0  0  0  0
   45.3993   13.9161    1.4334 C   0  0  0  0  0  0  0  0  0  0  0  0
   46.2896   13.8601    2.4830 C   0  0  0  0  0  0  0  0  0  0  0  0
   47.4477   12.4022    2.8450 Br  0  0  0  0  0  0  0  0  0  0  0  0
   45.1495   12.9632    0.3509 C   0  0  0  0  0  0  0  0  0  0  0  0
   44.6740   13.4102   -0.8848 C   0  0  0  0  0  0  0  0  0  0  0  0
   44.4669   12.5027   -1.9208 C   0  0  0  0  0  0  0  0  0  0  0  0
   44.7205   11.1417   -1.7246 C   0  0  0  0  0  0  0  0  0  0  0  0
   45.1572   10.6569   -0.4869 C   0  0  0  0  0  0  0  0  0  0  0  0
   45.4006   11.5932    0.5307 C   0  0  0  0  0  0  0  0  0  0  0  0
   45.4934    9.3197   -0.2543 N   0  0  0  0  0  0  0  0  0  0  0  0
   44.8792    8.7355    0.2464 H   0  0  0  0  0  0  0  0  0  0  0  0
   46.7555    8.7949   -0.7554 C   0  0  0  0  0  0  0  0  0  0  0  0
   47.6982    8.5769    0.4071 C   0  0  0  0  0  0  0  0  0  0  0  0
   49.0861    8.7106    0.2406 C   0  0  0  0  0  0  0  0  0  0  0  0
   49.9486    8.4966    1.3172 C   0  0  0  0  0  0  0  0  0  0  0  0
   49.4265    8.1440    2.5563 C   0  0  0  0  0  0  0  0  0  0  0  0
   50.2570    7.9383    3.5870 F   0  0  0  0  0  0  0  0  0  0  0  0
   48.0572    7.9979    2.7408 C   0  0  0  0  0  0  0  0  0  0  0  0
   47.1928    8.2117    1.6666 C   0  0  0  0  0  0  0  0  0  0  0  0
   44.8486   17.1782    3.4780 C   0  0  0  0  0  0  0  0  0  0  0  0
   44.6884   18.2490    2.9080 O   0  0  0  0  0  0  0  0  0  0  0  0
   44.6309   17.1080    4.8102 O   0  0  0  0  0  0  0  0  0  0  0  0
   44.7490   16.2956    5.2621 H   0  0  0  0  0  0  0  0  0  0  0  0
   46.9928   15.1869    4.4342 O   0  0  0  0  0  0  0  0  0  0  0  0
   48.1184   16.0285    4.1914 C   0  0  0  0  0  0  0  0  0  0  0  0
   47.2439   17.4880    5.9399 O   0  0  0  0  0  0  0  0  0  0  0  0
   48.1431   17.1849    5.1694 C   0  0  0  0  0  0  0  0  0  0  0  0
   49.2532   17.9463    5.0921 O   0  0  0  0  0  0  0  0  0  0  0  0
   49.9414   17.7125    4.5009 H   0  0  0  0  0  0  0  0  0  0  0  0
 29 30  2  0
 30 31  1  0
 30 28  1  0
 28 27  1  0
 27  1  1  0
  1  2  2  0
  2 23  1  0
 23 24  2  0
 23 25  1  0
  2  3  1  0
  3  4  1  0
  4  7  1  0
  7  8  2  0
  8  9  1  0
  9 10  2  0
 10 11  1  0
 11 13  1  0
 13 15  1  0
 15 16  1  0
 16 17  2  0
 17 18  1  0
 18 19  2  0
 19 20  1  0
 19 21  1  0
 21 22  2  0
 11 12  2  0
  4  5  2  0
  5  6  1  0
  5  1  1  0
 12  7  1  0
 22 16  1  0
 31 32  1  0
 25 26  1  0
 13 14  1  0
M  END
> <minimizedAffinity>
-8.63521

> <CNNscore>
0.9640276432

> <CNNaffinity>
6.4425597191

> <CNN_VS>
6.2108058929

> <CNNaffinity_variance>
0.1125642061

$$$$



 32 34  0  0  0  0  0  0  0  0999 V2000
   46.2681   15.0509    3.3802 C   0  0  0  0  0  0  0  0  0  0  0  0
   45.2809   15.9435    3.0010 C   0  0  0  0  0  0  0  0  0  0  0  0
   44.4654   15.3812    1.5939 S   0  0  0  0  0  0  0  0  0  0  0  0
   45.3863   13.9373    1.5232 C   0  0  0  0  0  0  0  0  0  0  0  0
   46.3009   13.8930    2.5523 C   0  0  0  0  0  0  0  0  0  0  0  0
   47.4798   12.4466    2.8927 Br  0  0  0  0  0  0  0  0  0  0  0  0
   45.1202   12.9783    0.4501 C   0  0  0  0  0  0  0  0  0  0  0  0
   45.0061   11.6153    0.7362 C   0  0  0  0  0  0  0  0  0  0  0  0
   44.7227   10.7109   -0.2844 C   0  0  0  0  0  0  0  0  0  0  0  0
   44.5650   11.1608   -1.5988 C   0  0  0  0  0  0  0  0  0  0  0  0
   44.7144   12.5133   -1.9248 C   0  0  0  0  0  0  0  0  0  0  0  0
   44.9574   13.4136   -0.8752 C   0  0  0  0  0  0  0  0  0  0  0  0
   44.4990   13.0289   -3.2066 N   0  0  0  0  0  0  0  0  0  0  0  0
   44.9470   12.6238   -3.9840 H   0  0  0  0  0  0  0  0  0  0  0  0
   43.6095   14.1671   -3.3868 C   0  0  0  0  0  0  0  0  0  0  0  0
   44.4188   15.4434   -3.3245 C   0  0  0  0  0  0  0  0  0  0  0  0
   45.6213   15.5665   -4.0391 C   0  0  0  0  0  0  0  0  0  0  0  0
   46.3665   16.7446   -3.9664 C   0  0  0  0  0  0  0  0  0  0  0  0
   45.9148   17.7958   -3.1770 C   0  0  0  0  0  0  0  0  0  0  0  0
   46.6329   18.9245   -3.1085 F   0  0  0  0  0  0  0  0  0  0  0  0
   44.7323   17.6919   -2.4550 C   0  0  0  0  0  0  0  0  0  0  0  0
   43.9851   16.5157   -2.5263 C   0  0  0  0  0  0  0  0  0  0  0  0
   44.8541   17.2021    3.5685 C   0  0  0  0  0  0  0  0  0  0  0  0
   44.6869   18.2733    3.0013 O   0  0  0  0  0  0  0  0  0  0  0  0
   44.6475   17.1295    4.9024 O   0  0  0  0  0  0  0  0  0  0  0  0
   44.7711   16.3168    5.3521 H   0  0  0  0  0  0  0  0  0  0  0  0
   47.0370   15.2330    4.4822 O   0  0  0  0  0  0  0  0  0  0  0  0
   48.1316   16.1088    4.2189 C   0  0  0  0  0  0  0  0  0  0  0  0
   47.2419   17.5558    5.9701 O   0  0  0  0  0  0  0  0  0  0  0  0
   48.1491   17.2561    5.2076 C   0  0  0  0  0  0  0  0  0  0  0  0
   49.2631   18.0136    5.1506 O   0  0  0  0  0  0  0  0  0  0  0  0
   49.9575   17.7824    4.5656 H   0  0  0  0  0  0  0  0  0  0  0  0
 29 30  2  0
 30 31  1  0
 30 28  1  0
 28 27  1  0
 27  1  1  0
  1  2  2  0
  2 23  1  0
 23 24  2  0
 23 25  1  0
  2  3  1  0
  3  4  1  0
  4  7  1  0
  7  8  2  0
  8  9  1  0
  9 10  2  0
 10 11  1  0
 11 13  1  0
 13 15  1  0
 15 16  1  0
 16 17  2  0
 17 18  1  0
 18 19  2  0
 19 20  1  0
 19 21  1  0
 21 22  2  0
 11 12  2  0
  4  5  2  0
  5  6  1  0
  5  1  1  0
 12  7  1  0
 22 16  1  0
 31 32  1  0
 25 26  1  0
 13 14  1  0
M  END
> <minimizedAffinity>
-8.58195

> <CNNscore>
0.9253387451

> <CNNaffinity>
6.4157919884

> <CNN_VS>
5.9367809296

> <CNNaffinity_variance>
0.0110603655

$$$$



 32 34  0  0  0  0  0  0  0  0999 V2000
   46.2661   15.0437    3.3788 C   0  0  0  0  0  0  0  0  0  0  0  0
   45.2782   15.9345    2.9970 C   0  0  0  0  0  0  0  0  0  0  0  0
   44.4522   15.3595    1.6012 S   0  0  0  0  0  0  0  0  0  0  0  0
   45.3697   13.9130    1.5393 C   0  0  0  0  0  0  0  0  0  0  0  0
   46.2910   13.8773    2.5627 C   0  0  0  0  0  0  0  0  0  0  0  0
   47.4691   12.4319    2.9102 Br  0  0  0  0  0  0  0  0  0  0  0  0
   45.0943   12.9436    0.4780 C   0  0  0  0  0  0  0  0  0  0  0  0
   45.1022   11.5741    0.7558 C   0  0  0  0  0  0  0  0  0  0  0  0
   44.8097   10.6576   -0.2513 C   0  0  0  0  0  0  0  0  0  0  0  0
   44.5210   11.1027   -1.5449 C   0  0  0  0  0  0  0  0  0  0  0  0
   44.5460   12.4644   -1.8653 C   0  0  0  0  0  0  0  0  0  0  0  0
   44.8008   13.3738   -0.8263 C   0  0  0  0  0  0  0  0  0  0  0  0
   44.1975   12.9706   -3.1213 N   0  0  0  0  0  0  0  0  0  0  0  0
   44.0328   12.3568   -3.8732 H   0  0  0  0  0  0  0  0  0  0  0  0
   44.0792   14.4089   -3.3127 C   0  0  0  0  0  0  0  0  0  0  0  0
   42.6412   14.8219   -3.0907 C   0  0  0  0  0  0  0  0  0  0  0  0
   41.5847   14.0173   -3.5470 C   0  0  0  0  0  0  0  0  0  0  0  0
   40.2609   14.4127   -3.3469 C   0  0  0  0  0  0  0  0  0  0  0  0
   39.9927   15.6120   -2.6974 C   0  0  0  0  0  0  0  0  0  0  0  0
   38.7213   15.9889   -2.5080 F   0  0  0  0  0  0  0  0  0  0  0  0
   41.0230   16.4273   -2.2456 C   0  0  0  0  0  0  0  0  0  0  0  0
   42.3470   16.0344   -2.4438 C   0  0  0  0  0  0  0  0  0  0  0  0
   44.8579   17.1998    3.5543 C   0  0  0  0  0  0  0  0  0  0  0  0
   44.6865   18.2648    2.9768 O   0  0  0  0  0  0  0  0  0  0  0  0
   44.6634   17.1423    4.8908 O   0  0  0  0  0  0  0  0  0  0  0  0
   44.7903   16.3346    5.3483 H   0  0  0  0  0  0  0  0  0  0  0  0
   47.0427   15.2356    4.4738 O   0  0  0  0  0  0  0  0  0  0  0  0
   48.1329   16.1124    4.1962 C   0  0  0  0  0  0  0  0  0  0  0  0
   47.2598   17.5595    5.9557 O   0  0  0  0  0  0  0  0  0  0  0  0
   48.1561   17.2652    5.1784 C   0  0  0  0  0  0  0  0  0  0  0  0
   49.2608   18.0341    5.0972 O   0  0  0  0  0  0  0  0  0  0  0  0
   49.9469   17.8070    4.5008 H   0  0  0  0  0  0  0  0  0  0  0  0
 29 30  2  0
 30 31  1  0
 30 28  1  0
 28 27  1  0
 27  1  1  0
  1  2  2  0
  2 23  1  0
 23 24  2  0
 23 25  1  0
  2  3  1  0
  3  4  1  0
  4  7  1  0
  7  8  2  0
  8  9  1  0
  9 10  2  0
 10 11  1  0
 11 13  1  0
 13 15  1  0
 15 16  1  0
 16 17  2  0
 17 18  1  0
 18 19  2  0
 19 20  1  0
 19 21  1  0
 21 22  2  0
 11 12  2  0
  4  5  2  0
  5  6  1  0
  5  1  1  0
 12  7  1  0
 22 16  1  0
 31 32  1  0
 25 26  1  0
 13 14  1  0
M  END
> <minimizedAffinity>
-8.75310

> <CNNscore>
0.9119378924

> <CNNaffinity>
6.4759697914

> <CNN_VS>
5.9056820869

> <CNNaffinity_variance>
0.1033403501

$$$$



 32 34  0  0  0  0  0  0  0  0999 V2000
   46.2504   14.8497    2.6069 C   0  0  0  0  0  0  0  0  0  0  0  0
   45.2775   15.4315    1.8130 C   0  0  0  0  0  0  0  0  0  0  0  0
   44.6604   14.2923    0.6805 S   0  0  0  0  0  0  0  0  0  0  0  0
   45.6450   13.0233    1.2790 C   0  0  0  0  0  0  0  0  0  0  0  0
   46.4317   13.4672    2.3190 C   0  0  0  0  0  0  0  0  0  0  0  0
   47.6232   12.3800    3.3169 Br  0  0  0  0  0  0  0  0  0  0  0  0
   45.5502   11.7003    0.6603 C   0  0  0  0  0  0  0  0  0  0  0  0
   44.6012   11.4551   -0.3358 C   0  0  0  0  0  0  0  0  0  0  0  0
   44.5358   10.2030   -0.9422 C   0  0  0  0  0  0  0  0  0  0  0  0
   45.4086    9.1844   -0.5479 C   0  0  0  0  0  0  0  0  0  0  0  0
   46.3418    9.3851    0.4751 C   0  0  0  0  0  0  0  0  0  0  0  0
   46.4203   10.6666    1.0433 C   0  0  0  0  0  0  0  0  0  0  0  0
   47.2848    8.4276    0.8615 N   0  0  0  0  0  0  0  0  0  0  0  0
   47.0706    7.4688    0.7967 H   0  0  0  0  0  0  0  0  0  0  0  0
   48.5844    8.8542    1.3599 C   0  0  0  0  0  0  0  0  0  0  0  0
   48.9612    8.0041    2.5528 C   0  0  0  0  0  0  0  0  0  0  0  0
   48.0084    7.6780    3.5314 C   0  0  0  0  0  0  0  0  0  0  0  0
   48.3688    6.9018    4.6344 C   0  0  0  0  0  0  0  0  0  0  0  0
   49.6795    6.4570    4.7628 C   0  0  0  0  0  0  0  0  0  0  0  0
   50.0222    5.7134    5.8230 F   0  0  0  0  0  0  0  0  0  0  0  0
   50.6399    6.7754    3.8107 C   0  0  0  0  0  0  0  0  0  0  0  0
   50.2824    7.5505    2.7070 C   0  0  0  0  0  0  0  0  0  0  0  0
   44.7321   16.7694    1.7871 C   0  0  0  0  0  0  0  0  0  0  0  0
   45.2669   17.8145    2.1318 O   0  0  0  0  0  0  0  0  0  0  0  0
   43.4594   16.8052    1.3330 O   0  0  0  0  0  0  0  0  0  0  0  0
   43.0351   16.0139    1.0650 H   0  0  0  0  0  0  0  0  0  0  0  0
   46.8741   15.5169    3.6093 O   0  0  0  0  0  0  0  0  0  0  0  0
   46.0932   15.5195    4.8028 C   0  0  0  0  0  0  0  0  0  0  0  0
   46.9328   17.4326    6.0627 O   0  0  0  0  0  0  0  0  0  0  0  0
   46.0444   16.9073    5.4077 C   0  0  0  0  0  0  0  0  0  0  0  0
   44.8698   17.5443    5.2273 O   0  0  0  0  0  0  0  0  0  0  0  0
   44.1899   17.1402    4.7250 H   0  0  0  0  0  0  0  0  0  0  0  0
 29 30  2  0
 30 31  1  0
 30 28  1  0
 28 27  1  0
 27  1  1  0
  1  2  2  0
  2 23  1  0
 23 24  2  0
 23 25  1  0
  2  3  1  0
  3  4  1  0
  4  7  1  0
  7  8  2  0
  8  9  1  0
  9 10  2  0
 10 11  1  0
 11 13  1  0
 13 15  1  0
 15 16  1  0
 16 17  2  0
 17 18  1  0
 18 19  2  0
 19 20  1  0
 19 21  1  0
 21 22  2  0
 11 12  2  0
  4  5  2  0
  5  6  1  0
  5  1  1  0
 12  7  1  0
 22 16  1  0
 31 32  1  0
 25 26  1  0
 13 14  1  0
M  END
> <minimizedAffinity>
-7.91556

> <CNNscore>
0.9113316536

> <CNNaffinity>
6.4176907539

> <CNN_VS>
5.8486447334

> <CNNaffinity_variance>
0.0065823942

$$$$



 32 34  0  0  0  0  0  0  0  0999 V2000
   45.9210   15.0537    2.8941 C   0  0  0  0  0  0  0  0  0  0  0  0
   45.0379   15.7305    2.0712 C   0  0  0  0  0  0  0  0  0  0  0  0
   44.7189   14.8189    0.6470 S   0  0  0  0  0  0  0  0  0  0  0  0
   45.7088   13.5127    1.1488 C   0  0  0  0  0  0  0  0  0  0  0  0
   46.2740   13.7748    2.3773 C   0  0  0  0  0  0  0  0  0  0  0  0
   47.3865   12.5748    3.3365 Br  0  0  0  0  0  0  0  0  0  0  0  0
   45.8380   12.3449    0.2761 C   0  0  0  0  0  0  0  0  0  0  0  0
   44.9898   11.2464    0.4396 C   0  0  0  0  0  0  0  0  0  0  0  0
   45.0974   10.1506   -0.4132 C   0  0  0  0  0  0  0  0  0  0  0  0
   46.0616   10.1396   -1.4257 C   0  0  0  0  0  0  0  0  0  0  0  0
   46.9532   11.2054   -1.5892 C   0  0  0  0  0  0  0  0  0  0  0  0
   46.7999   12.3182   -0.7469 C   0  0  0  0  0  0  0  0  0  0  0  0
   47.8887   11.2800   -2.6257 N   0  0  0  0  0  0  0  0  0  0  0  0
   48.5952   10.5989   -2.7037 H   0  0  0  0  0  0  0  0  0  0  0  0
   47.8138   12.3690   -3.5890 C   0  0  0  0  0  0  0  0  0  0  0  0
   48.8737   13.3964   -3.2591 C   0  0  0  0  0  0  0  0  0  0  0  0
   48.7525   14.7218   -3.7068 C   0  0  0  0  0  0  0  0  0  0  0  0
   49.7416   15.6600   -3.4063 C   0  0  0  0  0  0  0  0  0  0  0  0
   50.8523   15.2740   -2.6650 C   0  0  0  0  0  0  0  0  0  0  0  0
   51.8002   16.1765   -2.3794 F   0  0  0  0  0  0  0  0  0  0  0  0
   50.9962   13.9658   -2.2197 C   0  0  0  0  0  0  0  0  0  0  0  0
   50.0090   13.0261   -2.5181 C   0  0  0  0  0  0  0  0  0  0  0  0
   44.3814   17.0101    2.2124 C   0  0  0  0  0  0  0  0  0  0  0  0
   44.7981   18.0211    2.7613 O   0  0  0  0  0  0  0  0  0  0  0  0
   43.1450   17.0252    1.6661 O   0  0  0  0  0  0  0  0  0  0  0  0
   42.8108   16.2594    1.2421 H   0  0  0  0  0  0  0  0  0  0  0  0
   46.3113   15.5321    4.1015 O   0  0  0  0  0  0  0  0  0  0  0  0
   47.5372   16.2550    4.0075 C   0  0  0  0  0  0  0  0  0  0  0  0
   48.1636   18.4679    4.8219 O   0  0  0  0  0  0  0  0  0  0  0  0
   47.5441   17.4246    4.9700 C   0  0  0  0  0  0  0  0  0  0  0  0
   46.8376   17.2117    6.0986 O   0  0  0  0  0  0  0  0  0  0  0  0
   46.3633   16.4113    6.2104 H   0  0  0  0  0  0  0  0  0  0  0  0
 29 30  2  0
 30 31  1  0
 30 28  1  0
 28 27  1  0
 27  1  1  0
  1  2  2  0
  2 23  1  0
 23 24  2  0
 23 25  1  0
  2  3  1  0
  3  4  1  0
  4  7  1  0
  7  8  2  0
  8  9  1  0
  9 10  2  0
 10 11  1  0
 11 13  1  0
 13 15  1  0
 15 16  1  0
 16 17  2  0
 17 18  1  0
 18 19  2  0
 19 20  1  0
 19 21  1  0
 21 22  2  0
 11 12  2  0
  4  5  2  0
  5  6  1  0
  5  1  1  0
 12  7  1  0
 22 16  1  0
 31 32  1  0
 25 26  1  0
 13 14  1  0
M  END
> <minimizedAffinity>
-7.55138

> <CNNscore>
0.9109956622

> <CNNaffinity>
6.1126785278

> <CNN_VS>
5.5686235428

> <CNNaffinity_variance>
0.1330986470

$$$$



 32 34  0  0  0  0  0  0  0  0999 V2000
   45.9157   14.8332    2.6028 C   0  0  0  0  0  0  0  0  0  0  0  0
   45.1338   15.4913    1.6697 C   0  0  0  0  0  0  0  0  0  0  0  0
   44.8593   14.4903    0.2971 S   0  0  0  0  0  0  0  0  0  0  0  0
   45.7318   13.1749    0.9652 C   0  0  0  0  0  0  0  0  0  0  0  0
   46.2259   13.5006    2.2091 C   0  0  0  0  0  0  0  0  0  0  0  0
   47.1953   12.3198    3.3331 Br  0  0  0  0  0  0  0  0  0  0  0  0
   45.8502   11.9373    0.1929 C   0  0  0  0  0  0  0  0  0  0  0  0
   44.8250   10.9881    0.2224 C   0  0  0  0  0  0  0  0  0  0  0  0
   44.9298    9.8261   -0.5383 C   0  0  0  0  0  0  0  0  0  0  0  0
   46.0650    9.5990   -1.3223 C   0  0  0  0  0  0  0  0  0  0  0  0
   47.1270   10.5097   -1.3411 C   0  0  0  0  0  0  0  0  0  0  0  0
   46.9828   11.6942   -0.6011 C   0  0  0  0  0  0  0  0  0  0  0  0
   48.2528   10.3693   -2.1584 N   0  0  0  0  0  0  0  0  0  0  0  0
   48.4027   10.9936   -2.9047 H   0  0  0  0  0  0  0  0  0  0  0  0
   49.2023    9.2961   -1.9014 C   0  0  0  0  0  0  0  0  0  0  0  0
   50.5510    9.8960   -1.5714 C   0  0  0  0  0  0  0  0  0  0  0  0
   50.6742   11.2611   -1.2665 C   0  0  0  0  0  0  0  0  0  0  0  0
   51.9250   11.8075   -0.9739 C   0  0  0  0  0  0  0  0  0  0  0  0
   53.0516   10.9934   -0.9914 C   0  0  0  0  0  0  0  0  0  0  0  0
   54.2505   11.5211   -0.7113 F   0  0  0  0  0  0  0  0  0  0  0  0
   52.9533    9.6420   -1.2989 C   0  0  0  0  0  0  0  0  0  0  0  0
   51.7043    9.0932   -1.5913 C   0  0  0  0  0  0  0  0  0  0  0  0
   44.5474   16.8120    1.6676 C   0  0  0  0  0  0  0  0  0  0  0  0
   45.1157   17.8955    1.6520 O   0  0  0  0  0  0  0  0  0  0  0  0
   43.1965   16.7831    1.7085 O   0  0  0  0  0  0  0  0  0  0  0  0
   42.7457   15.9618    1.7209 H   0  0  0  0  0  0  0  0  0  0  0  0
   46.2501   15.3822    3.7969 O   0  0  0  0  0  0  0  0  0  0  0  0
   47.3759   16.2498    3.6782 C   0  0  0  0  0  0  0  0  0  0  0  0
   48.0232   18.3493    4.7389 O   0  0  0  0  0  0  0  0  0  0  0  0
   47.1698   17.5089    4.4945 C   0  0  0  0  0  0  0  0  0  0  0  0
   45.9347   17.6255    5.0226 O   0  0  0  0  0  0  0  0  0  0  0  0
   45.2818   16.9803    4.8342 H   0  0  0  0  0  0  0  0  0  0  0  0
 29 30  2  0
 30 31  1  0
 30 28  1  0
 28 27  1  0
 27  1  1  0
  1  2  2  0
  2 23  1  0
 23 24  2  0
 23 25  1  0
  2  3  1  0
  3  4  1  0
  4  7  1  0
  7  8  2  0
  8  9  1  0
  9 10  2  0
 10 11  1  0
 11 13  1  0
 13 15  1  0
 15 16  1  0
 16 17  2  0
 17 18  1  0
 18 19  2  0
 19 20  1  0
 19 21  1  0
 21 22  2  0
 11 12  2  0
  4  5  2  0
  5  6  1  0
  5  1  1  0
 12  7  1  0
 22 16  1  0
 31 32  1  0
 25 26  1  0
 13 14  1  0
M  END
> <minimizedAffinity>
-6.91938

> <CNNscore>
0.8954493403

> <CNNaffinity>
6.3051185608

> <CNN_VS>
5.6459140778

> <CNNaffinity_variance>
0.2028711289

$$$$



 32 34  0  0  0  0  0  0  0  0999 V2000
   46.2177   15.0569    3.3181 C   0  0  0  0  0  0  0  0  0  0  0  0
   45.2512   15.9718    2.9383 C   0  0  0  0  0  0  0  0  0  0  0  0
   44.4486   15.4455    1.5100 S   0  0  0  0  0  0  0  0  0  0  0  0
   45.3468   13.9878    1.4302 C   0  0  0  0  0  0  0  0  0  0  0  0
   46.2444   13.9119    2.4723 C   0  0  0  0  0  0  0  0  0  0  0  0
   47.3940   12.4409    2.8073 Br  0  0  0  0  0  0  0  0  0  0  0  0
   45.0816   13.0506    0.3378 C   0  0  0  0  0  0  0  0  0  0  0  0
   44.7386   13.5263   -0.9306 C   0  0  0  0  0  0  0  0  0  0  0  0
   44.5170   12.6306   -1.9739 C   0  0  0  0  0  0  0  0  0  0  0  0
   44.6235   11.2541   -1.7533 C   0  0  0  0  0  0  0  0  0  0  0  0
   44.9241   10.7443   -0.4854 C   0  0  0  0  0  0  0  0  0  0  0  0
   45.1858   11.6650    0.5418 C   0  0  0  0  0  0  0  0  0  0  0  0
   45.1123    9.3839   -0.2228 N   0  0  0  0  0  0  0  0  0  0  0  0
   44.5266    8.7136   -0.6435 H   0  0  0  0  0  0  0  0  0  0  0  0
   46.1778    8.9625    0.6753 C   0  0  0  0  0  0  0  0  0  0  0  0
   47.3412    8.4479   -0.1430 C   0  0  0  0  0  0  0  0  0  0  0  0
   47.3120    8.5027   -1.5458 C   0  0  0  0  0  0  0  0  0  0  0  0
   48.3862    8.0151   -2.2923 C   0  0  0  0  0  0  0  0  0  0  0  0
   49.4849    7.4686   -1.6394 C   0  0  0  0  0  0  0  0  0  0  0  0
   50.5134    7.0006   -2.3587 F   0  0  0  0  0  0  0  0  0  0  0  0
   49.5305    7.3968   -0.2526 C   0  0  0  0  0  0  0  0  0  0  0  0
   48.4586    7.8838    0.4961 C   0  0  0  0  0  0  0  0  0  0  0  0
   44.8364   17.2281    3.5194 C   0  0  0  0  0  0  0  0  0  0  0  0
   44.6775   18.3065    2.9636 O   0  0  0  0  0  0  0  0  0  0  0  0
   44.6314   17.1436    4.8529 O   0  0  0  0  0  0  0  0  0  0  0  0
   44.7487   16.3253    5.2940 H   0  0  0  0  0  0  0  0  0  0  0  0
   46.9723   15.2088    4.4345 O   0  0  0  0  0  0  0  0  0  0  0  0
   48.0686   16.0930    4.2101 C   0  0  0  0  0  0  0  0  0  0  0  0
   47.1587   17.5024    5.9815 O   0  0  0  0  0  0  0  0  0  0  0  0
   48.0866   17.1973    5.2467 C   0  0  0  0  0  0  0  0  0  0  0  0
   49.2307   17.9105    5.2700 O   0  0  0  0  0  0  0  0  0  0  0  0
   49.9410   17.6752    4.7060 H   0  0  0  0  0  0  0  0  0  0  0  0
 29 30  2  0
 30 31  1  0
 30 28  1  0
 28 27  1  0
 27  1  1  0
  1  2  2  0
  2 23  1  0
 23 24  2  0
 23 25  1  0
  2  3  1  0
  3  4  1  0
  4  7  1  0
  7  8  2  0
  8  9  1  0
  9 10  2  0
 10 11  1  0
 11 13  1  0
 13 15  1  0
 15 16  1  0
 16 17  2  0
 17 18  1  0
 18 19  2  0
 19 20  1  0
 19 21  1  0
 21 22  2  0
 11 12  2  0
  4  5  2  0
  5  6  1  0
  5  1  1  0
 12  7  1  0
 22 16  1  0
 31 32  1  0
 25 26  1  0
 13 14  1  0
M  END
> <minimizedAffinity>
-8.23499

> <CNNscore>
0.8814621568

> <CNNaffinity>
6.2616343498

> <CNN_VS>
5.5193939209

> <CNNaffinity_variance>
0.1182128564

$$$$



 32 34  0  0  0  0  0  0  0  0999 V2000
   45.8878   15.0855    2.8310 C   0  0  0  0  0  0  0  0  0  0  0  0
   45.0278   16.1426    2.5896 C   0  0  0  0  0  0  0  0  0  0  0  0
   44.3741   16.0396    1.0012 S   0  0  0  0  0  0  0  0  0  0  0  0
   45.1908   14.5719    0.6593 C   0  0  0  0  0  0  0  0  0  0  0  0
   45.9508   14.1757    1.7377 C   0  0  0  0  0  0  0  0  0  0  0  0
   46.9660   12.5755    1.8184 Br  0  0  0  0  0  0  0  0  0  0  0  0
   45.0060   13.9461   -0.6508 C   0  0  0  0  0  0  0  0  0  0  0  0
   43.9114   14.2915   -1.4479 C   0  0  0  0  0  0  0  0  0  0  0  0
   43.7571   13.7151   -2.7064 C   0  0  0  0  0  0  0  0  0  0  0  0
   44.6877   12.7805   -3.1706 C   0  0  0  0  0  0  0  0  0  0  0  0
   45.7712   12.3823   -2.3799 C   0  0  0  0  0  0  0  0  0  0  0  0
   45.9321   13.0068   -1.1328 C   0  0  0  0  0  0  0  0  0  0  0  0
   46.7693   11.5069   -2.8188 N   0  0  0  0  0  0  0  0  0  0  0  0
   47.6205   11.8611   -3.1641 H   0  0  0  0  0  0  0  0  0  0  0  0
   46.5447   10.0696   -2.7632 C   0  0  0  0  0  0  0  0  0  0  0  0
   46.8475    9.5743   -1.3664 C   0  0  0  0  0  0  0  0  0  0  0  0
   48.1731    9.3873   -0.9428 C   0  0  0  0  0  0  0  0  0  0  0  0
   48.4418    8.9194    0.3447 C   0  0  0  0  0  0  0  0  0  0  0  0
   47.3886    8.6333    1.2055 C   0  0  0  0  0  0  0  0  0  0  0  0
   47.6499    8.1834    2.4399 F   0  0  0  0  0  0  0  0  0  0  0  0
   46.0694    8.8030    0.8038 C   0  0  0  0  0  0  0  0  0  0  0  0
   45.7979    9.2710   -0.4824 C   0  0  0  0  0  0  0  0  0  0  0  0
   44.6183   17.2558    3.4151 C   0  0  0  0  0  0  0  0  0  0  0  0
   44.4376   17.2782    4.6250 O   0  0  0  0  0  0  0  0  0  0  0  0
   44.4040   18.3835    2.7012 O   0  0  0  0  0  0  0  0  0  0  0  0
   44.5377   18.3834    1.7738 H   0  0  0  0  0  0  0  0  0  0  0  0
   46.5101   14.9041    4.0221 O   0  0  0  0  0  0  0  0  0  0  0  0
   47.7080   15.6733    4.1103 C   0  0  0  0  0  0  0  0  0  0  0  0
   47.2010   16.7690    6.2304 O   0  0  0  0  0  0  0  0  0  0  0  0
   47.5243   16.8438    5.0539 C   0  0  0  0  0  0  0  0  0  0  0  0
   47.6838   18.0494    4.4715 O   0  0  0  0  0  0  0  0  0  0  0  0
   47.9316   18.1049    3.5696 H   0  0  0  0  0  0  0  0  0  0  0  0
 29 30  2  0
 30 31  1  0
 30 28  1  0
 28 27  1  0
 27  1  1  0
  1  2  2  0
  2 23  1  0
 23 24  2  0
 23 25  1  0
  2  3  1  0
  3  4  1  0
  4  7  1  0
  7  8  2  0
  8  9  1  0
  9 10  2  0
 10 11  1  0
 11 13  1  0
 13 15  1  0
 15 16  1  0
 16 17  2  0
 17 18  1  0
 18 19  2  0
 19 20  1  0
 19 21  1  0
 21 22  2  0
 11 12  2  0
  4  5  2  0
  5  6  1  0
  5  1  1  0
 12  7  1  0
 22 16  1  0
 31 32  1  0
 25 26  1  0
 13 14  1  0
M  END
> <minimizedAffinity>
-6.50155

> <CNNscore>
0.8809049129

> <CNNaffinity>
6.4541344643

> <CNN_VS>
5.6854786873

> <CNNaffinity_variance>
0.0973395482

$$$$



 32 34  0  0  0  0  0  0  0  0999 V2000
   45.6305   15.1232    2.4509 C   0  0  0  0  0  0  0  0  0  0  0  0
   44.8383   15.2594    1.3244 C   0  0  0  0  0  0  0  0  0  0  0  0
   44.9157   13.8394    0.3555 S   0  0  0  0  0  0  0  0  0  0  0  0
   45.9546   13.0331    1.4548 C   0  0  0  0  0  0  0  0  0  0  0  0
   46.2384   13.8385    2.5357 C   0  0  0  0  0  0  0  0  0  0  0  0
   47.2963   13.3229    4.0232 Br  0  0  0  0  0  0  0  0  0  0  0  0
   46.3974   11.6731    1.1444 C   0  0  0  0  0  0  0  0  0  0  0  0
   45.4984   10.7436    0.6147 C   0  0  0  0  0  0  0  0  0  0  0  0
   45.9328    9.4599    0.2931 C   0  0  0  0  0  0  0  0  0  0  0  0
   47.2642    9.0929    0.5110 C   0  0  0  0  0  0  0  0  0  0  0  0
   48.1788    9.9869    1.0786 C   0  0  0  0  0  0  0  0  0  0  0  0
   47.7315   11.2886    1.3557 C   0  0  0  0  0  0  0  0  0  0  0  0
   49.5359    9.6988    1.2537 N   0  0  0  0  0  0  0  0  0  0  0  0
   50.2143   10.1707    0.7188 H   0  0  0  0  0  0  0  0  0  0  0  0
   49.9414    8.6982    2.2303 C   0  0  0  0  0  0  0  0  0  0  0  0
   51.1692    7.9769    1.7204 C   0  0  0  0  0  0  0  0  0  0  0  0
   51.5996    8.1420    0.3940 C   0  0  0  0  0  0  0  0  0  0  0  0
   52.7278    7.4634   -0.0701 C   0  0  0  0  0  0  0  0  0  0  0  0
   53.4214    6.6169    0.7869 C   0  0  0  0  0  0  0  0  0  0  0  0
   54.5029    5.9663    0.3380 F   0  0  0  0  0  0  0  0  0  0  0  0
   53.0077    6.4324    2.1004 C   0  0  0  0  0  0  0  0  0  0  0  0
   51.8808    7.1099    2.5671 C   0  0  0  0  0  0  0  0  0  0  0  0
   44.0059   16.3459    0.8609 C   0  0  0  0  0  0  0  0  0  0  0  0
   43.7499   16.6686   -0.2913 O   0  0  0  0  0  0  0  0  0  0  0  0
   43.4874   17.0749    1.8743 O   0  0  0  0  0  0  0  0  0  0  0  0
   43.6736   16.8413    2.7625 H   0  0  0  0  0  0  0  0  0  0  0  0
   45.7199   16.0831    3.4046 O   0  0  0  0  0  0  0  0  0  0  0  0
   46.9397   16.8148    3.2993 C   0  0  0  0  0  0  0  0  0  0  0  0
   48.1336   18.3735    4.7474 O   0  0  0  0  0  0  0  0  0  0  0  0
   47.1496   17.6843    4.5216 C   0  0  0  0  0  0  0  0  0  0  0  0
   46.1591   17.6001    5.4326 O   0  0  0  0  0  0  0  0  0  0  0  0
   45.4056   17.0713    5.2578 H   0  0  0  0  0  0  0  0  0  0  0  0
 29 30  2  0
 30 31  1  0
 30 28  1  0
 28 27  1  0
 27  1  1  0
  1  2  2  0
  2 23  1  0
 23 24  2  0
 23 25  1  0
  2  3  1  0
  3  4  1  0
  4  7  1  0
  7  8  2  0
  8  9  1  0
  9 10  2  0
 10 11  1  0
 11 13  1  0
 13 15  1  0
 15 16  1  0
 16 17  2  0
 17 18  1  0
 18 19  2  0
 19 20  1  0
 19 21  1  0
 21 22  2  0
 11 12  2  0
  4  5  2  0
  5  6  1  0
  5  1  1  0
 12  7  1  0
 22 16  1  0
 31 32  1  0
 25 26  1  0
 13 14  1  0
M  END
> <minimizedAffinity>
-7.16592

> <CNNscore>
0.8613856435

> <CNNaffinity>
6.2569861412

> <CNN_VS>
5.3896780014

> <CNNaffinity_variance>
0.2400374860

$$$$
