


 33 36  0  0  0  0  0  0  0  0999 V2000
    3.3698   31.8518    7.4455 C   0  0  0  0  0  0  0  0  0  0  0  0
    3.3177   31.8149    8.7823 N   0  0  0  0  0  0  0  0  0  0  0  0
    3.8612   30.7473    9.3863 C   0  0  0  0  0  0  0  0  0  0  0  0
    4.4686   29.7237    8.7064 C   0  0  0  0  0  0  0  0  0  0  0  0
    4.5055   29.8423    7.3365 C   0  0  0  0  0  0  0  0  0  0  0  0
    3.9423   30.8878    6.7045 N   0  0  0  0  0  0  0  0  0  0  0  0
    2.8259   32.9037    6.7132 N   0  0  0  0  0  0  0  0  0  0  0  0
    2.6693   33.7087    7.2580 H   0  0  0  0  0  0  0  0  0  0  0  0
    1.5860   33.4891    2.7111 C   0  0  0  0  0  0  0  0  0  0  0  0
    2.7223   32.7215    2.9761 C   0  0  0  0  0  0  0  0  0  0  0  0
    3.1470   32.5177    4.2959 C   0  0  0  0  0  0  0  0  0  0  0  0
    2.4528   33.0712    5.3765 C   0  0  0  0  0  0  0  0  0  0  0  0
    1.3116   33.8405    5.0912 C   0  0  0  0  0  0  0  0  0  0  0  0
    0.8787   34.0504    3.7760 C   0  0  0  0  0  0  0  0  0  0  0  0
    1.7886   33.3048    0.3185 O   0  0  0  0  0  0  0  0  0  0  0  0
    1.1733   33.6784    1.2999 C   0  0  0  0  0  0  0  0  0  0  0  0
    0.0027   34.3304    1.1814 O   0  0  0  0  0  0  0  0  0  0  0  0
   -0.4572   34.6106    1.9482 H   0  0  0  0  0  0  0  0  0  0  0  0
    5.0669   28.8676    6.5100 N   0  0  0  0  0  0  0  0  0  0  0  0
    4.8102   27.9502    6.7586 H   0  0  0  0  0  0  0  0  0  0  0  0
    5.9269   28.9245    5.3910 C   0  0  0  0  0  0  0  0  0  0  0  0
    5.5223   29.4910    4.1713 C   0  0  0  0  0  0  0  0  0  0  0  0
    6.3899   29.5609    3.0788 C   0  0  0  0  0  0  0  0  0  0  0  0
    7.6839   29.0682    3.1858 C   0  0  0  0  0  0  0  0  0  0  0  0
    8.1090   28.4999    4.3851 C   0  0  0  0  0  0  0  0  0  0  0  0
    7.2501   28.4189    5.4996 C   0  0  0  0  0  0  0  0  0  0  0  0
    7.7614   27.8138    6.7441 C   0  0  0  0  0  0  0  0  0  0  0  0
    7.8219   28.5547    7.9362 C   0  0  0  0  0  0  0  0  0  0  0  0
    8.3055   27.9799    9.1150 C   0  0  0  0  0  0  0  0  0  0  0  0
    8.7368   26.6562    9.1118 C   0  0  0  0  0  0  0  0  0  0  0  0
    9.3319   25.9463   10.5612 Cl  0  0  0  0  0  0  0  0  0  0  0  0
    8.6887   25.9032    7.9413 C   0  0  0  0  0  0  0  0  0  0  0  0
    8.2039   26.4803    6.7639 C   0  0  0  0  0  0  0  0  0  0  0  0
 15 16  2  0
 16 17  1  0
 16  9  1  0
  9 10  2  0
 10 11  1  0
 11 12  2  0
 12  7  1  0
  7  1  1  0
  1  2  2  0
  2  3  1  0
  3  4  2  0
  4  5  1  0
  5 19  1  0
 19 21  1  0
 21 22  2  0
 22 23  1  0
 23 24  2  0
 24 25  1  0
 25 26  2  0
 26 27  1  0
 27 28  2  0
 28 29  1  0
 29 30  2  0
 30 31  1  0
 30 32  1  0
 32 33  2  0
  5  6  2  0
 12 13  1  0
 13 14  2  0
 14  9  1  0
  6  1  1  0
 26 21  1  0
 33 27  1  0
 17 18  1  0
  7  8  1  0
 19 20  1  0
M  END
> <minimizedAffinity>
-10.21066

> <CNNscore>
0.9893856645

> <CNNaffinity>
7.7308754921

> <CNN_VS>
7.6488175392

> <CNNaffinity_variance>
0.0476955064

$$$$



 33 36  0  0  0  0  0  0  0  0999 V2000
    3.5100   31.6419    7.5873 C   0  0  0  0  0  0  0  0  0  0  0  0
    3.4585   31.4556    8.9115 N   0  0  0  0  0  0  0  0  0  0  0  0
    4.0732   30.3678    9.4004 C   0  0  0  0  0  0  0  0  0  0  0  0
    4.7507   29.4687    8.6185 C   0  0  0  0  0  0  0  0  0  0  0  0
    4.7815   29.7387    7.2701 C   0  0  0  0  0  0  0  0  0  0  0  0
    4.1486   30.8062    6.7507 N   0  0  0  0  0  0  0  0  0  0  0  0
    2.8961   32.7281    6.9691 N   0  0  0  0  0  0  0  0  0  0  0  0
    2.7204   33.4723    7.5892 H   0  0  0  0  0  0  0  0  0  0  0  0
    1.7403   33.4872    2.9710 C   0  0  0  0  0  0  0  0  0  0  0  0
    0.8805   33.8341    4.0155 C   0  0  0  0  0  0  0  0  0  0  0  0
    1.2476   33.5896    5.3456 C   0  0  0  0  0  0  0  0  0  0  0  0
    2.4737   32.9968    5.6640 C   0  0  0  0  0  0  0  0  0  0  0  0
    3.3264   32.6546    4.6004 C   0  0  0  0  0  0  0  0  0  0  0  0
    2.9692   32.8945    3.2677 C   0  0  0  0  0  0  0  0  0  0  0  0
    1.9237   33.4698    0.5699 O   0  0  0  0  0  0  0  0  0  0  0  0
    1.3110   33.7643    1.5794 C   0  0  0  0  0  0  0  0  0  0  0  0
    0.1278   34.4009    1.5151 O   0  0  0  0  0  0  0  0  0  0  0  0
   -0.3299   34.6198    2.3029 H   0  0  0  0  0  0  0  0  0  0  0  0
    5.4099   28.9008    6.3473 N   0  0  0  0  0  0  0  0  0  0  0  0
    5.0613   28.9977    5.4317 H   0  0  0  0  0  0  0  0  0  0  0  0
    6.4423   27.9428    6.4549 C   0  0  0  0  0  0  0  0  0  0  0  0
    6.8001   27.3716    7.6869 C   0  0  0  0  0  0  0  0  0  0  0  0
    7.8082   26.4089    7.7766 C   0  0  0  0  0  0  0  0  0  0  0  0
    8.4775   25.9944    6.6325 C   0  0  0  0  0  0  0  0  0  0  0  0
    8.1420   26.5472    5.3981 C   0  0  0  0  0  0  0  0  0  0  0  0
    7.1284   27.5199    5.2851 C   0  0  0  0  0  0  0  0  0  0  0  0
    6.8134   28.0610    3.9493 C   0  0  0  0  0  0  0  0  0  0  0  0
    5.7528   27.5392    3.1898 C   0  0  0  0  0  0  0  0  0  0  0  0
    5.4545   28.0536    1.9248 C   0  0  0  0  0  0  0  0  0  0  0  0
    6.2179   29.0953    1.4050 C   0  0  0  0  0  0  0  0  0  0  0  0
    5.8527   29.7305   -0.1512 Cl  0  0  0  0  0  0  0  0  0  0  0  0
    7.2757   29.6267    2.1387 C   0  0  0  0  0  0  0  0  0  0  0  0
    7.5714   29.1109    3.4039 C   0  0  0  0  0  0  0  0  0  0  0  0
 15 16  2  0
 16 17  1  0
 16  9  1  0
  9 10  2  0
 10 11  1  0
 11 12  2  0
 12  7  1  0
  7  1  1  0
  1  2  2  0
  2  3  1  0
  3  4  2  0
  4  5  1  0
  5 19  1  0
 19 21  1  0
 21 22  2  0
 22 23  1  0
 23 24  2  0
 24 25  1  0
 25 26  2  0
 26 27  1  0
 27 28  2  0
 28 29  1  0
 29 30  2  0
 30 31  1  0
 30 32  1  0
 32 33  2  0
  5  6  2  0
 12 13  1  0
 13 14  2  0
 14  9  1  0
  6  1  1  0
 26 21  1  0
 33 27  1  0
 17 18  1  0
  7  8  1  0
 19 20  1  0
M  END
> <minimizedAffinity>
-10.02676

> <CNNscore>
0.9743953347

> <CNNaffinity>
7.4973721504

> <CNN_VS>
7.3054046631

> <CNNaffinity_variance>
0.0187845770

$$$$



 33 36  0  0  0  0  0  0  0  0999 V2000
    7.0215   27.6828    4.3458 C   0  0  0  0  0  0  0  0  0  0  0  0
    6.7374   27.1502    3.1515 N   0  0  0  0  0  0  0  0  0  0  0  0
    5.6394   27.6013    2.5262 C   0  0  0  0  0  0  0  0  0  0  0  0
    4.8243   28.5754    3.0415 C   0  0  0  0  0  0  0  0  0  0  0  0
    5.1928   29.0930    4.2615 C   0  0  0  0  0  0  0  0  0  0  0  0
    6.2722   28.6376    4.9229 N   0  0  0  0  0  0  0  0  0  0  0  0
    8.1274   27.2810    5.0904 N   0  0  0  0  0  0  0  0  0  0  0  0
    8.9289   27.1359    4.5374 H   0  0  0  0  0  0  0  0  0  0  0  0
    8.8680   26.4196    9.1655 C   0  0  0  0  0  0  0  0  0  0  0  0
    8.2457   27.6201    8.8160 C   0  0  0  0  0  0  0  0  0  0  0  0
    7.9931   27.9213    7.4710 C   0  0  0  0  0  0  0  0  0  0  0  0
    8.3528   27.0377    6.4483 C   0  0  0  0  0  0  0  0  0  0  0  0
    8.9778   25.8344    6.8183 C   0  0  0  0  0  0  0  0  0  0  0  0
    9.2350   25.5237    8.1593 C   0  0  0  0  0  0  0  0  0  0  0  0
    8.8629   25.1039   11.1824 O   0  0  0  0  0  0  0  0  0  0  0  0
    9.1157   26.1425   10.6005 C   0  0  0  0  0  0  0  0  0  0  0  0
    9.6717   27.1842   11.2449 O   0  0  0  0  0  0  0  0  0  0  0  0
    9.8594   27.9762   10.7807 H   0  0  0  0  0  0  0  0  0  0  0  0
    4.4473   30.0707    4.9222 N   0  0  0  0  0  0  0  0  0  0  0  0
    4.0193   30.7138    4.3119 H   0  0  0  0  0  0  0  0  0  0  0  0
    4.1798   30.3288    6.2849 C   0  0  0  0  0  0  0  0  0  0  0  0
    4.7525   29.5618    7.3125 C   0  0  0  0  0  0  0  0  0  0  0  0
    4.4971   29.8412    8.6571 C   0  0  0  0  0  0  0  0  0  0  0  0
    3.6650   30.8983    9.0017 C   0  0  0  0  0  0  0  0  0  0  0  0
    3.0833   31.6735    8.0004 C   0  0  0  0  0  0  0  0  0  0  0  0
    3.3272   31.4090    6.6377 C   0  0  0  0  0  0  0  0  0  0  0  0
    2.6889   32.2707    5.6247 C   0  0  0  0  0  0  0  0  0  0  0  0
    1.5683   33.0550    5.9456 C   0  0  0  0  0  0  0  0  0  0  0  0
    0.9650   33.8721    4.9852 C   0  0  0  0  0  0  0  0  0  0  0  0
    1.4765   33.9103    3.6909 C   0  0  0  0  0  0  0  0  0  0  0  0
    0.7363   34.9153    2.5073 Cl  0  0  0  0  0  0  0  0  0  0  0  0
    2.5848   33.1394    3.3492 C   0  0  0  0  0  0  0  0  0  0  0  0
    3.1867   32.3237    4.3118 C   0  0  0  0  0  0  0  0  0  0  0  0
 15 16  2  0
 16 17  1  0
 16  9  1  0
  9 10  2  0
 10 11  1  0
 11 12  2  0
 12  7  1  0
  7  1  1  0
  1  2  2  0
  2  3  1  0
  3  4  2  0
  4  5  1  0
  5 19  1  0
 19 21  1  0
 21 22  2  0
 22 23  1  0
 23 24  2  0
 24 25  1  0
 25 26  2  0
 26 27  1  0
 27 28  2  0
 28 29  1  0
 29 30  2  0
 30 31  1  0
 30 32  1  0
 32 33  2  0
  5  6  2  0
 12 13  1  0
 13 14  2  0
 14  9  1  0
  6  1  1  0
 26 21  1  0
 33 27  1  0
 17 18  1  0
  7  8  1  0
 19 20  1  0
M  END
> <minimizedAffinity>
-11.29159

> <CNNscore>
0.3071703315

> <CNNaffinity>
6.2698230743

> <CNN_VS>
1.9259036779

> <CNNaffinity_variance>
0.6379792094

$$$$



 33 36  0  0  0  0  0  0  0  0999 V2000
    4.7736   30.2166    6.4436 C   0  0  0  0  0  0  0  0  0  0  0  0
    4.2302   30.3057    7.6634 N   0  0  0  0  0  0  0  0  0  0  0  0
    3.1901   31.1405    7.8101 C   0  0  0  0  0  0  0  0  0  0  0  0
    2.6626   31.8766    6.7811 C   0  0  0  0  0  0  0  0  0  0  0  0
    3.2575   31.7149    5.5514 C   0  0  0  0  0  0  0  0  0  0  0  0
    4.3200   30.9069    5.3836 N   0  0  0  0  0  0  0  0  0  0  0  0
    5.8648   29.3932    6.1788 N   0  0  0  0  0  0  0  0  0  0  0  0
    6.2111   29.4993    5.2634 H   0  0  0  0  0  0  0  0  0  0  0  0
    8.1419   26.6117    8.4093 C   0  0  0  0  0  0  0  0  0  0  0  0
    6.7684   26.4121    8.2539 C   0  0  0  0  0  0  0  0  0  0  0  0
    5.9992   27.3237    7.5183 C   0  0  0  0  0  0  0  0  0  0  0  0
    6.5779   28.4494    6.9236 C   0  0  0  0  0  0  0  0  0  0  0  0
    7.9613   28.6343    7.0901 C   0  0  0  0  0  0  0  0  0  0  0  0
    8.7391   27.7296    7.8232 C   0  0  0  0  0  0  0  0  0  0  0  0
    8.4648   24.6359    9.7476 O   0  0  0  0  0  0  0  0  0  0  0  0
    8.9164   25.6220    9.1955 C   0  0  0  0  0  0  0  0  0  0  0  0
   10.2283   25.9137    9.2546 O   0  0  0  0  0  0  0  0  0  0  0  0
   10.5583   26.6773    8.8233 H   0  0  0  0  0  0  0  0  0  0  0  0
    2.8470   32.4169    4.4169 N   0  0  0  0  0  0  0  0  0  0  0  0
    3.2956   32.1216    3.5918 H   0  0  0  0  0  0  0  0  0  0  0  0
    1.9214   33.4630    4.2073 C   0  0  0  0  0  0  0  0  0  0  0  0
    1.1366   33.9806    5.2506 C   0  0  0  0  0  0  0  0  0  0  0  0
    0.2407   35.0303    5.0346 C   0  0  0  0  0  0  0  0  0  0  0  0
    0.1143   35.5873    3.7687 C   0  0  0  0  0  0  0  0  0  0  0  0
    0.8809   35.0904    2.7164 C   0  0  0  0  0  0  0  0  0  0  0  0
    1.7906   34.0318    2.9121 C   0  0  0  0  0  0  0  0  0  0  0  0
    2.5798   33.5556    1.7603 C   0  0  0  0  0  0  0  0  0  0  0  0
    3.7625   34.2087    1.3750 C   0  0  0  0  0  0  0  0  0  0  0  0
    4.5102   33.7558    0.2842 C   0  0  0  0  0  0  0  0  0  0  0  0
    4.0792   32.6443   -0.4349 C   0  0  0  0  0  0  0  0  0  0  0  0
    4.9975   32.0846   -1.7773 Cl  0  0  0  0  0  0  0  0  0  0  0  0
    2.9085   31.9825   -0.0729 C   0  0  0  0  0  0  0  0  0  0  0  0
    2.1631   32.4372    1.0188 C   0  0  0  0  0  0  0  0  0  0  0  0
 15 16  2  0
 16 17  1  0
 16  9  1  0
  9 10  2  0
 10 11  1  0
 11 12  2  0
 12  7  1  0
  7  1  1  0
  1  2  2  0
  2  3  1  0
  3  4  2  0
  4  5  1  0
  5 19  1  0
 19 21  1  0
 21 22  2  0
 22 23  1  0
 23 24  2  0
 24 25  1  0
 25 26  2  0
 26 27  1  0
 27 28  2  0
 28 29  1  0
 29 30  2  0
 30 31  1  0
 30 32  1  0
 32 33  2  0
  5  6  2  0
 12 13  1  0
 13 14  2  0
 14  9  1  0
  6  1  1  0
 26 21  1  0
 33 27  1  0
 17 18  1  0
  7  8  1  0
 19 20  1  0
M  END
> <minimizedAffinity>
-8.57507

> <CNNscore>
0.2733941376

> <CNNaffinity>
6.5913009644

> <CNN_VS>
1.8020230532

> <CNNaffinity_variance>
0.0430260897

$$$$



 33 36  0  0  0  0  0  0  0  0999 V2000
    7.5729   27.2952    3.9528 C   0  0  0  0  0  0  0  0  0  0  0  0
    8.5640   27.5437    3.0885 N   0  0  0  0  0  0  0  0  0  0  0  0
    8.3258   28.4512    2.1293 C   0  0  0  0  0  0  0  0  0  0  0  0
    7.1414   29.1308    2.0112 C   0  0  0  0  0  0  0  0  0  0  0  0
    6.1784   28.8406    2.9495 C   0  0  0  0  0  0  0  0  0  0  0  0
    6.3810   27.9139    3.9035 N   0  0  0  0  0  0  0  0  0  0  0  0
    7.7035   26.3635    4.9793 N   0  0  0  0  0  0  0  0  0  0  0  0
    7.5342   25.4403    4.6821 H   0  0  0  0  0  0  0  0  0  0  0  0
    8.7491   26.5028    9.0761 C   0  0  0  0  0  0  0  0  0  0  0  0
    7.8685   27.4540    8.5560 C   0  0  0  0  0  0  0  0  0  0  0  0
    7.5117   27.4224    7.2012 C   0  0  0  0  0  0  0  0  0  0  0  0
    8.0215   26.4474    6.3379 C   0  0  0  0  0  0  0  0  0  0  0  0
    8.9060   25.4982    6.8784 C   0  0  0  0  0  0  0  0  0  0  0  0
    9.2692   25.5208    8.2307 C   0  0  0  0  0  0  0  0  0  0  0  0
    9.4001   27.5811   11.1286 O   0  0  0  0  0  0  0  0  0  0  0  0
    9.0988   26.5743   10.5149 C   0  0  0  0  0  0  0  0  0  0  0  0
    9.0550   25.3751   11.1229 O   0  0  0  0  0  0  0  0  0  0  0  0
    8.8209   24.6105   10.6345 H   0  0  0  0  0  0  0  0  0  0  0  0
    4.9146   29.4330    2.9412 N   0  0  0  0  0  0  0  0  0  0  0  0
    4.1959   28.8231    3.2254 H   0  0  0  0  0  0  0  0  0  0  0  0
    4.4530   30.7262    2.6098 C   0  0  0  0  0  0  0  0  0  0  0  0
    4.4051   31.1799    1.2816 C   0  0  0  0  0  0  0  0  0  0  0  0
    3.9258   32.4532    0.9651 C   0  0  0  0  0  0  0  0  0  0  0  0
    3.4802   33.2987    1.9726 C   0  0  0  0  0  0  0  0  0  0  0  0
    3.5190   32.8724    3.2988 C   0  0  0  0  0  0  0  0  0  0  0  0
    3.9988   31.5920    3.6404 C   0  0  0  0  0  0  0  0  0  0  0  0
    4.0068   31.1956    5.0613 C   0  0  0  0  0  0  0  0  0  0  0  0
    3.1279   31.7900    5.9823 C   0  0  0  0  0  0  0  0  0  0  0  0
    3.1355   31.4127    7.3283 C   0  0  0  0  0  0  0  0  0  0  0  0
    4.0264   30.4371    7.7672 C   0  0  0  0  0  0  0  0  0  0  0  0
    4.0375   29.9707    9.4228 Cl  0  0  0  0  0  0  0  0  0  0  0  0
    4.9087   29.8361    6.8728 C   0  0  0  0  0  0  0  0  0  0  0  0
    4.8984   30.2147    5.5272 C   0  0  0  0  0  0  0  0  0  0  0  0
 15 16  2  0
 16 17  1  0
 16  9  1  0
  9 10  2  0
 10 11  1  0
 11 12  2  0
 12  7  1  0
  7  1  1  0
  1  2  2  0
  2  3  1  0
  3  4  2  0
  4  5  1  0
  5 19  1  0
 19 21  1  0
 21 22  2  0
 22 23  1  0
 23 24  2  0
 24 25  1  0
 25 26  2  0
 26 27  1  0
 27 28  2  0
 28 29  1  0
 29 30  2  0
 30 31  1  0
 30 32  1  0
 32 33  2  0
  5  6  2  0
 12 13  1  0
 13 14  2  0
 14  9  1  0
  6  1  1  0
 26 21  1  0
 33 27  1  0
 17 18  1  0
  7  8  1  0
 19 20  1  0
M  END
> <minimizedAffinity>
-10.48934

> <CNNscore>
0.2101074606

> <CNNaffinity>
6.0732731819

> <CNN_VS>
1.2760399580

> <CNNaffinity_variance>
0.6552582383

$$$$



 33 36  0  0  0  0  0  0  0  0999 V2000
    1.7391   33.6224    2.9280 C   0  0  0  0  0  0  0  0  0  0  0  0
    0.7686   34.2322    3.6188 N   0  0  0  0  0  0  0  0  0  0  0  0
    0.7310   34.0153    4.9423 C   0  0  0  0  0  0  0  0  0  0  0  0
    1.6356   33.2257    5.6034 C   0  0  0  0  0  0  0  0  0  0  0  0
    2.6188   32.6516    4.8315 C   0  0  0  0  0  0  0  0  0  0  0  0
    2.6617   32.8291    3.4986 N   0  0  0  0  0  0  0  0  0  0  0  0
    1.8659   33.7643    1.5486 N   0  0  0  0  0  0  0  0  0  0  0  0
    1.1373   34.2927    1.1496 H   0  0  0  0  0  0  0  0  0  0  0  0
    4.5991   32.3201   -1.3394 C   0  0  0  0  0  0  0  0  0  0  0  0
    4.9029   33.4781   -0.6203 C   0  0  0  0  0  0  0  0  0  0  0  0
    4.0087   33.9703    0.3399 C   0  0  0  0  0  0  0  0  0  0  0  0
    2.7974   33.3232    0.6044 C   0  0  0  0  0  0  0  0  0  0  0  0
    2.5083   32.1592   -0.1285 C   0  0  0  0  0  0  0  0  0  0  0  0
    3.3947   31.6589   -1.0902 C   0  0  0  0  0  0  0  0  0  0  0  0
    6.6798   32.3006   -2.5517 O   0  0  0  0  0  0  0  0  0  0  0  0
    5.5742   31.8355   -2.3453 C   0  0  0  0  0  0  0  0  0  0  0  0
    5.1179   30.7849   -3.0508 O   0  0  0  0  0  0  0  0  0  0  0  0
    4.2639   30.4400   -2.8782 H   0  0  0  0  0  0  0  0  0  0  0  0
    3.5930   31.8029    5.3597 N   0  0  0  0  0  0  0  0  0  0  0  0
    4.2845   31.5486    4.7067 H   0  0  0  0  0  0  0  0  0  0  0  0
    3.7923   31.2332    6.6367 C   0  0  0  0  0  0  0  0  0  0  0  0
    3.2343   31.7957    7.7962 C   0  0  0  0  0  0  0  0  0  0  0  0
    3.4208   31.2102    9.0506 C   0  0  0  0  0  0  0  0  0  0  0  0
    4.1675   30.0454    9.1702 C   0  0  0  0  0  0  0  0  0  0  0  0
    4.7330   29.4685    8.0347 C   0  0  0  0  0  0  0  0  0  0  0  0
    4.5576   30.0427    6.7596 C   0  0  0  0  0  0  0  0  0  0  0  0
    5.1742   29.3800    5.5947 C   0  0  0  0  0  0  0  0  0  0  0  0
    4.4468   29.1768    4.4101 C   0  0  0  0  0  0  0  0  0  0  0  0
    5.0325   28.5498    3.3065 C   0  0  0  0  0  0  0  0  0  0  0  0
    6.3536   28.1167    3.3787 C   0  0  0  0  0  0  0  0  0  0  0  0
    7.0769   27.3454    2.0220 Cl  0  0  0  0  0  0  0  0  0  0  0  0
    7.0933   28.3051    4.5436 C   0  0  0  0  0  0  0  0  0  0  0  0
    6.5053   28.9331    5.6455 C   0  0  0  0  0  0  0  0  0  0  0  0
 15 16  2  0
 16 17  1  0
 16  9  1  0
  9 10  2  0
 10 11  1  0
 11 12  2  0
 12  7  1  0
  7  1  1  0
  1  2  2  0
  2  3  1  0
  3  4  2  0
  4  5  1  0
  5 19  1  0
 19 21  1  0
 21 22  2  0
 22 23  1  0
 23 24  2  0
 24 25  1  0
 25 26  2  0
 26 27  1  0
 27 28  2  0
 28 29  1  0
 29 30  2  0
 30 31  1  0
 30 32  1  0
 32 33  2  0
  5  6  2  0
 12 13  1  0
 13 14  2  0
 14  9  1  0
  6  1  1  0
 26 21  1  0
 33 27  1  0
 17 18  1  0
  7  8  1  0
 19 20  1  0
M  END
> <minimizedAffinity>
-9.69748

> <CNNscore>
0.1702245027

> <CNNaffinity>
5.5572504997

> <CNN_VS>
0.9459801912

> <CNNaffinity_variance>
0.6344122291

$$$$



 33 36  0  0  0  0  0  0  0  0999 V2000
    7.7823   29.3833    2.7175 C   0  0  0  0  0  0  0  0  0  0  0  0
    7.8970   29.3378    1.3849 N   0  0  0  0  0  0  0  0  0  0  0  0
    6.8013   29.6266    0.6665 C   0  0  0  0  0  0  0  0  0  0  0  0
    5.6006   29.9746    1.2288 C   0  0  0  0  0  0  0  0  0  0  0  0
    5.5651   30.0238    2.6030 C   0  0  0  0  0  0  0  0  0  0  0  0
    6.6411   29.7104    3.3472 N   0  0  0  0  0  0  0  0  0  0  0  0
    8.8498   29.0892    3.5618 N   0  0  0  0  0  0  0  0  0  0  0  0
    9.7032   29.4635    3.2445 H   0  0  0  0  0  0  0  0  0  0  0  0
    9.2514   26.8242    7.1122 C   0  0  0  0  0  0  0  0  0  0  0  0
    9.0953   28.2098    7.1917 C   0  0  0  0  0  0  0  0  0  0  0  0
    8.9610   28.9752    6.0256 C   0  0  0  0  0  0  0  0  0  0  0  0
    8.9791   28.3806    4.7598 C   0  0  0  0  0  0  0  0  0  0  0  0
    9.1368   26.9852    4.6988 C   0  0  0  0  0  0  0  0  0  0  0  0
    9.2719   26.2111    5.8579 C   0  0  0  0  0  0  0  0  0  0  0  0
    9.6508   24.8689    8.4600 O   0  0  0  0  0  0  0  0  0  0  0  0
    9.3898   26.0543    8.3715 C   0  0  0  0  0  0  0  0  0  0  0  0
    9.1942   26.8081    9.4683 O   0  0  0  0  0  0  0  0  0  0  0  0
    8.9941   27.7193    9.3810 H   0  0  0  0  0  0  0  0  0  0  0  0
    4.4071   30.3367    3.3167 N   0  0  0  0  0  0  0  0  0  0  0  0
    4.1319   29.6291    3.9435 H   0  0  0  0  0  0  0  0  0  0  0  0
    3.5482   31.4581    3.3262 C   0  0  0  0  0  0  0  0  0  0  0  0
    3.1425   32.0929    2.1410 C   0  0  0  0  0  0  0  0  0  0  0  0
    2.2752   33.1876    2.1628 C   0  0  0  0  0  0  0  0  0  0  0  0
    1.7921   33.6681    3.3729 C   0  0  0  0  0  0  0  0  0  0  0  0
    2.1810   33.0563    4.5630 C   0  0  0  0  0  0  0  0  0  0  0  0
    3.0553   31.9509    4.5640 C   0  0  0  0  0  0  0  0  0  0  0  0
    3.4233   31.3414    5.8561 C   0  0  0  0  0  0  0  0  0  0  0  0
    4.1780   30.1576    5.9079 C   0  0  0  0  0  0  0  0  0  0  0  0
    4.5271   29.5817    7.1328 C   0  0  0  0  0  0  0  0  0  0  0  0
    4.1212   30.1845    8.3202 C   0  0  0  0  0  0  0  0  0  0  0  0
    4.5499   29.4782    9.8289 Cl  0  0  0  0  0  0  0  0  0  0  0  0
    3.3701   31.3569    8.2934 C   0  0  0  0  0  0  0  0  0  0  0  0
    3.0230   31.9312    7.0670 C   0  0  0  0  0  0  0  0  0  0  0  0
 15 16  2  0
 16 17  1  0
 16  9  1  0
  9 10  2  0
 10 11  1  0
 11 12  2  0
 12  7  1  0
  7  1  1  0
  1  2  2  0
  2  3  1  0
  3  4  2  0
  4  5  1  0
  5 19  1  0
 19 21  1  0
 21 22  2  0
 22 23  1  0
 23 24  2  0
 24 25  1  0
 25 26  2  0
 26 27  1  0
 27 28  2  0
 28 29  1  0
 29 30  2  0
 30 31  1  0
 30 32  1  0
 32 33  2  0
  5  6  2  0
 12 13  1  0
 13 14  2  0
 14  9  1  0
  6  1  1  0
 26 21  1  0
 33 27  1  0
 17 18  1  0
  7  8  1  0
 19 20  1  0
M  END
> <minimizedAffinity>
-10.56947

> <CNNscore>
0.1701562554

> <CNNaffinity>
6.0199527740

> <CNN_VS>
1.0243326426

> <CNNaffinity_variance>
0.6353140473

$$$$



 33 36  0  0  0  0  0  0  0  0999 V2000
    5.3921   30.1778    1.6882 C   0  0  0  0  0  0  0  0  0  0  0  0
    6.4464   30.1876    0.8640 N   0  0  0  0  0  0  0  0  0  0  0  0
    7.4948   29.4221    1.2030 C   0  0  0  0  0  0  0  0  0  0  0  0
    7.5231   28.6354    2.3251 C   0  0  0  0  0  0  0  0  0  0  0  0
    6.3945   28.6579    3.1112 C   0  0  0  0  0  0  0  0  0  0  0  0
    5.3414   29.4390    2.8096 N   0  0  0  0  0  0  0  0  0  0  0  0
    4.2553   30.9437    1.4435 N   0  0  0  0  0  0  0  0  0  0  0  0
    3.9398   30.8742    0.5135 H   0  0  0  0  0  0  0  0  0  0  0  0
    1.7646   33.5145    3.6984 C   0  0  0  0  0  0  0  0  0  0  0  0
    2.9356   33.0120    4.2702 C   0  0  0  0  0  0  0  0  0  0  0  0
    3.7719   32.1592    3.5374 C   0  0  0  0  0  0  0  0  0  0  0  0
    3.4623   31.7893    2.2247 C   0  0  0  0  0  0  0  0  0  0  0  0
    2.2802   32.3044    1.6653 C   0  0  0  0  0  0  0  0  0  0  0  0
    1.4375   33.1573    2.3888 C   0  0  0  0  0  0  0  0  0  0  0  0
    0.0266   35.1355    4.0867 O   0  0  0  0  0  0  0  0  0  0  0  0
    0.9099   34.4133    4.5103 C   0  0  0  0  0  0  0  0  0  0  0  0
    1.2019   34.3666    5.8226 O   0  0  0  0  0  0  0  0  0  0  0  0
    1.8854   33.8046    6.1307 H   0  0  0  0  0  0  0  0  0  0  0  0
    6.2869   27.9300    4.2973 N   0  0  0  0  0  0  0  0  0  0  0  0
    5.3667   27.6422    4.4963 H   0  0  0  0  0  0  0  0  0  0  0  0
    7.2246   27.5206    5.2711 C   0  0  0  0  0  0  0  0  0  0  0  0
    8.3257   26.7111    4.9479 C   0  0  0  0  0  0  0  0  0  0  0  0
    9.2580   26.3312    5.9162 C   0  0  0  0  0  0  0  0  0  0  0  0
    9.1094   26.7576    7.2295 C   0  0  0  0  0  0  0  0  0  0  0  0
    8.0243   27.5604    7.5759 C   0  0  0  0  0  0  0  0  0  0  0  0
    7.0719   27.9551    6.6149 C   0  0  0  0  0  0  0  0  0  0  0  0
    5.9499   28.8125    7.0419 C   0  0  0  0  0  0  0  0  0  0  0  0
    5.4441   29.8147    6.1972 C   0  0  0  0  0  0  0  0  0  0  0  0
    4.3802   30.6257    6.6024 C   0  0  0  0  0  0  0  0  0  0  0  0
    3.8127   30.4433    7.8605 C   0  0  0  0  0  0  0  0  0  0  0  0
    2.5030   31.4397    8.3614 Cl  0  0  0  0  0  0  0  0  0  0  0  0
    4.2993   29.4580    8.7159 C   0  0  0  0  0  0  0  0  0  0  0  0
    5.3630   28.6478    8.3079 C   0  0  0  0  0  0  0  0  0  0  0  0
 15 16  2  0
 16 17  1  0
 16  9  1  0
  9 10  2  0
 10 11  1  0
 11 12  2  0
 12  7  1  0
  7  1  1  0
  1  2  2  0
  2  3  1  0
  3  4  2  0
  4  5  1  0
  5 19  1  0
 19 21  1  0
 21 22  2  0
 22 23  1  0
 23 24  2  0
 24 25  1  0
 25 26  2  0
 26 27  1  0
 27 28  2  0
 28 29  1  0
 29 30  2  0
 30 31  1  0
 30 32  1  0
 32 33  2  0
  5  6  2  0
 12 13  1  0
 13 14  2  0
 14  9  1  0
  6  1  1  0
 26 21  1  0
 33 27  1  0
 17 18  1  0
  7  8  1  0
 19 20  1  0
M  END
> <minimizedAffinity>
-10.02006

> <CNNscore>
0.1225514188

> <CNNaffinity>
5.7379002571

> <CNN_VS>
0.7031878233

> <CNNaffinity_variance>
0.6544608474

$$$$



 33 36  0  0  0  0  0  0  0  0999 V2000
    4.6733   29.8190    6.1440 C   0  0  0  0  0  0  0  0  0  0  0  0
    4.4138   30.0771    7.4312 N   0  0  0  0  0  0  0  0  0  0  0  0
    3.5861   31.0995    7.6951 C   0  0  0  0  0  0  0  0  0  0  0  0
    2.9956   31.8628    6.7217 C   0  0  0  0  0  0  0  0  0  0  0  0
    3.2900   31.5232    5.4217 C   0  0  0  0  0  0  0  0  0  0  0  0
    4.1397   30.5216    5.1303 N   0  0  0  0  0  0  0  0  0  0  0  0
    5.5282   28.7914    5.7538 N   0  0  0  0  0  0  0  0  0  0  0  0
    5.3826   27.9595    6.2597 H   0  0  0  0  0  0  0  0  0  0  0  0
    8.5534   28.3274    2.8332 C   0  0  0  0  0  0  0  0  0  0  0  0
    8.5769   29.4373    3.6807 C   0  0  0  0  0  0  0  0  0  0  0  0
    7.5825   29.6065    4.6535 C   0  0  0  0  0  0  0  0  0  0  0  0
    6.5471   28.6784    4.8036 C   0  0  0  0  0  0  0  0  0  0  0  0
    6.5394   27.5675    3.9424 C   0  0  0  0  0  0  0  0  0  0  0  0
    7.5281   27.3890    2.9669 C   0  0  0  0  0  0  0  0  0  0  0  0
    9.4642   27.9555    0.6352 O   0  0  0  0  0  0  0  0  0  0  0  0
    9.6254   28.1888    1.8187 C   0  0  0  0  0  0  0  0  0  0  0  0
   10.8569   28.3498    2.3354 O   0  0  0  0  0  0  0  0  0  0  0  0
   10.9619   28.5290    3.2491 H   0  0  0  0  0  0  0  0  0  0  0  0
    2.7848   32.2250    4.3260 N   0  0  0  0  0  0  0  0  0  0  0  0
    3.1129   31.8873    3.4613 H   0  0  0  0  0  0  0  0  0  0  0  0
    1.9004   33.3191    4.2005 C   0  0  0  0  0  0  0  0  0  0  0  0
    1.1497   33.7959    5.2875 C   0  0  0  0  0  0  0  0  0  0  0  0
    0.2950   34.8928    5.1555 C   0  0  0  0  0  0  0  0  0  0  0  0
    0.1766   35.5388    3.9319 C   0  0  0  0  0  0  0  0  0  0  0  0
    0.9098   35.0840    2.8376 C   0  0  0  0  0  0  0  0  0  0  0  0
    1.7777   33.9791    2.9485 C   0  0  0  0  0  0  0  0  0  0  0  0
    2.5331   33.5506    1.7559 C   0  0  0  0  0  0  0  0  0  0  0  0
    3.7305   34.1887    1.3912 C   0  0  0  0  0  0  0  0  0  0  0  0
    4.4460   33.7811    0.2617 C   0  0  0  0  0  0  0  0  0  0  0  0
    3.9680   32.7308   -0.5170 C   0  0  0  0  0  0  0  0  0  0  0  0
    4.8468   32.2269   -1.9072 Cl  0  0  0  0  0  0  0  0  0  0  0  0
    2.7820   32.0851   -0.1763 C   0  0  0  0  0  0  0  0  0  0  0  0
    2.0687   32.4943    0.9542 C   0  0  0  0  0  0  0  0  0  0  0  0
 15 16  2  0
 16 17  1  0
 16  9  1  0
  9 10  2  0
 10 11  1  0
 11 12  2  0
 12  7  1  0
  7  1  1  0
  1  2  2  0
  2  3  1  0
  3  4  2  0
  4  5  1  0
  5 19  1  0
 19 21  1  0
 21 22  2  0
 22 23  1  0
 23 24  2  0
 24 25  1  0
 25 26  2  0
 26 27  1  0
 27 28  2  0
 28 29  1  0
 29 30  2  0
 30 31  1  0
 30 32  1  0
 32 33  2  0
  5  6  2  0
 12 13  1  0
 13 14  2  0
 14  9  1  0
  6  1  1  0
 26 21  1  0
 33 27  1  0
 17 18  1  0
  7  8  1  0
 19 20  1  0
M  END
> <minimizedAffinity>
-8.44114

> <CNNscore>
0.0990347192

> <CNNaffinity>
5.8515014648

> <CNN_VS>
0.5795018077

> <CNNaffinity_variance>
0.0872161016

$$$$
