


 19 20  0  0  0  0  0  0  0  0999 V2000
  -16.7888   12.0154   33.8869 C   0  0  0  0  0  0  0  0  0  0  0  0
  -15.5165   12.8848   33.8265 C   0  0  0  0  0  0  0  0  0  0  0  0
  -16.0704   14.2602   34.1968 C   0  0  0  0  0  0  0  0  0  0  0  0
  -16.2322   14.3740   35.6168 O   0  0  0  0  0  0  0  0  0  0  0  0
  -17.4188   14.2896   33.4627 C   0  0  0  0  0  0  0  0  0  0  0  0
  -18.3698   15.3623   33.9915 C   0  0  0  0  0  0  0  0  0  0  0  0
  -17.8990   12.8859   33.4132 N   0  0  0  0  0  0  0  0  0  0  0  0
  -19.1277   12.6053   34.1458 C   0  0  0  0  0  0  0  0  0  0  0  0
  -16.8059   13.6596   35.9351 H   0  0  0  0  0  0  0  0  0  0  0  0
  -16.2636    8.4330   31.4817 C   0  0  0  0  0  0  0  0  0  0  0  0
  -15.2560    9.3924   31.5635 C   0  0  0  0  0  0  0  0  0  0  0  0
  -15.4367   10.5376   32.3485 C   0  0  0  0  0  0  0  0  0  0  0  0
  -16.6234   10.7430   33.0696 C   0  0  0  0  0  0  0  0  0  0  0  0
  -17.6329    9.7760   32.9716 C   0  0  0  0  0  0  0  0  0  0  0  0
  -17.4507    8.6331   32.1878 C   0  0  0  0  0  0  0  0  0  0  0  0
  -16.4986    6.0687   31.4515 C   0  0  0  0  0  0  0  0  0  0  0  0
  -16.2175    7.2756   30.7545 O   0  0  0  0  0  0  0  0  0  0  0  0
  -14.5364   12.4648   34.7895 O   0  0  0  0  0  0  0  0  0  0  0  0
  -13.2222   12.8810   34.4356 C   0  0  0  0  0  0  0  0  0  0  0  0
 16 17  1  0
 17 10  1  0
 10 11  2  0
 11 12  1  0
 12 13  2  0
  1 13  1  0
  1  2  1  0
  2 18  1  0
 18 19  1  0
  2  3  1  0
  3  4  1  0
  3  5  1  0
  5  6  1  0
  5  7  1  0
  7  8  1  0
 13 14  1  0
 14 15  2  0
 15 10  1  0
  7  1  1  0
  4  9  1  0
M  END
> <minimizedAffinity>
-6.39561

> <CNNscore>
0.7321965694

> <CNNaffinity>
5.0085310936

> <CNN_VS>
3.6672291756

> <CNNaffinity_variance>
0.1757852286

$$$$



 19 20  0  0  0  0  0  0  0  0999 V2000
  -15.8865   12.0282   33.7229 C   0  0  0  0  0  0  0  0  0  0  0  0
  -17.2272   12.4092   34.3829 C   0  0  0  0  0  0  0  0  0  0  0  0
  -16.7623   13.3472   35.4962 C   0  0  0  0  0  0  0  0  0  0  0  0
  -16.5018   14.6578   34.9767 O   0  0  0  0  0  0  0  0  0  0  0  0
  -15.4813   12.6655   35.9986 C   0  0  0  0  0  0  0  0  0  0  0  0
  -14.5846   13.5946   36.8154 C   0  0  0  0  0  0  0  0  0  0  0  0
  -14.8918   11.9682   34.8283 N   0  0  0  0  0  0  0  0  0  0  0  0
  -13.5914   12.4546   34.3837 C   0  0  0  0  0  0  0  0  0  0  0  0
  -15.8482   14.5985   34.2624 H   0  0  0  0  0  0  0  0  0  0  0  0
  -16.1942    8.3575   31.4154 C   0  0  0  0  0  0  0  0  0  0  0  0
  -15.1206    9.2274   31.2338 C   0  0  0  0  0  0  0  0  0  0  0  0
  -15.0311   10.4023   31.9900 C   0  0  0  0  0  0  0  0  0  0  0  0
  -16.0082   10.7272   32.9440 C   0  0  0  0  0  0  0  0  0  0  0  0
  -17.0879    9.8494   33.1106 C   0  0  0  0  0  0  0  0  0  0  0  0
  -17.1754    8.6767   32.3551 C   0  0  0  0  0  0  0  0  0  0  0  0
  -16.4893    6.0026   31.5327 C   0  0  0  0  0  0  0  0  0  0  0  0
  -16.4027    7.1834   30.7455 O   0  0  0  0  0  0  0  0  0  0  0  0
  -18.0924   13.1056   33.4712 O   0  0  0  0  0  0  0  0  0  0  0  0
  -17.4790   13.3189   32.2048 C   0  0  0  0  0  0  0  0  0  0  0  0
 16 17  1  0
 17 10  1  0
 10 11  2  0
 11 12  1  0
 12 13  2  0
  1 13  1  0
  1  2  1  0
  2 18  1  0
 18 19  1  0
  2  3  1  0
  3  4  1  0
  3  5  1  0
  5  6  1  0
  5  7  1  0
  7  8  1  0
 13 14  1  0
 14 15  2  0
 15 10  1  0
  7  1  1  0
  4  9  1  0
M  END
> <minimizedAffinity>
-6.30792

> <CNNscore>
0.5545921326

> <CNNaffinity>
4.4989323616

> <CNN_VS>
2.4950726032

> <CNNaffinity_variance>
0.3314103484

$$$$



 19 20  0  0  0  0  0  0  0  0999 V2000
  -14.0986   15.4784   35.6282 C   0  0  0  0  0  0  0  0  0  0  0  0
  -14.7388   14.1148   35.9582 C   0  0  0  0  0  0  0  0  0  0  0  0
  -16.0843   14.2295   35.2426 C   0  0  0  0  0  0  0  0  0  0  0  0
  -15.9359   13.9622   33.8419 O   0  0  0  0  0  0  0  0  0  0  0  0
  -16.4841   15.6882   35.5079 C   0  0  0  0  0  0  0  0  0  0  0  0
  -17.5715   16.1965   34.5626 C   0  0  0  0  0  0  0  0  0  0  0  0
  -15.2187   16.4581   35.6038 N   0  0  0  0  0  0  0  0  0  0  0  0
  -15.0048   17.4659   34.5723 C   0  0  0  0  0  0  0  0  0  0  0  0
  -15.2775   14.5668   33.4653 H   0  0  0  0  0  0  0  0  0  0  0  0
  -10.9172   16.4121   38.4389 C   0  0  0  0  0  0  0  0  0  0  0  0
  -10.6307   16.1257   37.1054 C   0  0  0  0  0  0  0  0  0  0  0  0
  -11.6669   15.8343   36.2099 C   0  0  0  0  0  0  0  0  0  0  0  0
  -13.0069   15.8287   36.6280 C   0  0  0  0  0  0  0  0  0  0  0  0
  -13.2814   16.1088   37.9734 C   0  0  0  0  0  0  0  0  0  0  0  0
  -12.2458   16.3999   38.8659 C   0  0  0  0  0  0  0  0  0  0  0  0
   -8.8184   15.9278   39.4421 C   0  0  0  0  0  0  0  0  0  0  0  0
  -10.0048   16.7105   39.4133 O   0  0  0  0  0  0  0  0  0  0  0  0
  -13.9770   13.0226   35.4184 O   0  0  0  0  0  0  0  0  0  0  0  0
  -13.2843   13.3861   34.2294 C   0  0  0  0  0  0  0  0  0  0  0  0
 16 17  1  0
 17 10  1  0
 10 11  2  0
 11 12  1  0
 12 13  2  0
  1 13  1  0
  1  2  1  0
  2 18  1  0
 18 19  1  0
  2  3  1  0
  3  4  1  0
  3  5  1  0
  5  6  1  0
  5  7  1  0
  7  8  1  0
 13 14  1  0
 14 15  2  0
 15 10  1  0
  7  1  1  0
  4  9  1  0
M  END
> <minimizedAffinity>
-4.32189

> <CNNscore>
0.4160205722

> <CNNaffinity>
3.4474763870

> <CNN_VS>
1.4342211485

> <CNNaffinity_variance>
0.6739119887

$$$$



 19 20  0  0  0  0  0  0  0  0999 V2000
  -17.9969   17.6743   34.5951 C   0  0  0  0  0  0  0  0  0  0  0  0
  -19.1640   17.0054   35.3492 C   0  0  0  0  0  0  0  0  0  0  0  0
  -20.0458   18.2104   35.6750 C   0  0  0  0  0  0  0  0  0  0  0  0
  -20.8313   18.5844   34.5355 O   0  0  0  0  0  0  0  0  0  0  0  0
  -19.0182   19.2910   36.0417 C   0  0  0  0  0  0  0  0  0  0  0  0
  -19.5914   20.7066   36.0004 C   0  0  0  0  0  0  0  0  0  0  0  0
  -17.8020   19.0005   35.2417 N   0  0  0  0  0  0  0  0  0  0  0  0
  -17.4299   20.0088   34.2568 C   0  0  0  0  0  0  0  0  0  0  0  0
  -20.2454   18.7626   33.7833 H   0  0  0  0  0  0  0  0  0  0  0  0
  -14.3934   15.2436   34.6139 C   0  0  0  0  0  0  0  0  0  0  0  0
  -14.3205   16.6299   34.7378 C   0  0  0  0  0  0  0  0  0  0  0  0
  -15.4905   17.3990   34.7378 C   0  0  0  0  0  0  0  0  0  0  0  0
  -16.7536   16.7981   34.6195 C   0  0  0  0  0  0  0  0  0  0  0  0
  -16.8134   15.4044   34.4859 C   0  0  0  0  0  0  0  0  0  0  0  0
  -15.6444   14.6381   34.4865 C   0  0  0  0  0  0  0  0  0  0  0  0
  -13.6006   13.0454   34.1831 C   0  0  0  0  0  0  0  0  0  0  0  0
  -13.3339   14.3788   34.5981 O   0  0  0  0  0  0  0  0  0  0  0  0
  -19.8755   16.0761   34.5158 O   0  0  0  0  0  0  0  0  0  0  0  0
  -20.5441   15.0755   35.2755 C   0  0  0  0  0  0  0  0  0  0  0  0
 16 17  1  0
 17 10  1  0
 10 11  2  0
 11 12  1  0
 12 13  2  0
  1 13  1  0
  1  2  1  0
  2 18  1  0
 18 19  1  0
  2  3  1  0
  3  4  1  0
  3  5  1  0
  5  6  1  0
  5  7  1  0
  7  8  1  0
 13 14  1  0
 14 15  2  0
 15 10  1  0
  7  1  1  0
  4  9  1  0
M  END
> <minimizedAffinity>
-4.77277

> <CNNscore>
0.3741224706

> <CNNaffinity>
3.0345582962

> <CNN_VS>
1.1352964640

> <CNNaffinity_variance>
0.9642038345

$$$$



 19 20  0  0  0  0  0  0  0  0999 V2000
  -16.3975   13.6869   33.7001 C   0  0  0  0  0  0  0  0  0  0  0  0
  -16.1982   12.3022   33.0511 C   0  0  0  0  0  0  0  0  0  0  0  0
  -17.6402   11.8086   32.9391 C   0  0  0  0  0  0  0  0  0  0  0  0
  -18.2859   12.3895   31.7984 O   0  0  0  0  0  0  0  0  0  0  0  0
  -18.2645   12.2894   34.2571 C   0  0  0  0  0  0  0  0  0  0  0  0
  -19.7921   12.3055   34.2298 C   0  0  0  0  0  0  0  0  0  0  0  0
  -17.5540   13.5396   34.6251 N   0  0  0  0  0  0  0  0  0  0  0  0
  -18.3629   14.7523   34.6423 C   0  0  0  0  0  0  0  0  0  0  0  0
  -18.2424   13.3566   31.8599 H   0  0  0  0  0  0  0  0  0  0  0  0
  -12.7621   15.1176   35.6055 C   0  0  0  0  0  0  0  0  0  0  0  0
  -13.7437   16.0102   35.1790 C   0  0  0  0  0  0  0  0  0  0  0  0
  -14.9130   15.5339   34.5737 C   0  0  0  0  0  0  0  0  0  0  0  0
  -15.1255   14.1588   34.3883 C   0  0  0  0  0  0  0  0  0  0  0  0
  -14.1269   13.2719   34.8126 C   0  0  0  0  0  0  0  0  0  0  0  0
  -12.9604   13.7491   35.4170 C   0  0  0  0  0  0  0  0  0  0  0  0
  -11.6206   16.4857   37.1775 C   0  0  0  0  0  0  0  0  0  0  0  0
  -11.5788   15.4477   36.2069 O   0  0  0  0  0  0  0  0  0  0  0  0
  -15.6021   12.4042   31.7476 O   0  0  0  0  0  0  0  0  0  0  0  0
  -15.0304   11.1730   31.3201 C   0  0  0  0  0  0  0  0  0  0  0  0
 16 17  1  0
 17 10  1  0
 10 11  2  0
 11 12  1  0
 12 13  2  0
  1 13  1  0
  1  2  1  0
  2 18  1  0
 18 19  1  0
  2  3  1  0
  3  4  1  0
  3  5  1  0
  5  6  1  0
  5  7  1  0
  7  8  1  0
 13 14  1  0
 14 15  2  0
 15 10  1  0
  7  1  1  0
  4  9  1  0
M  END
> <minimizedAffinity>
-6.24193

> <CNNscore>
0.2810713053

> <CNNaffinity>
3.7261660099

> <CNN_VS>
1.0473183393

> <CNNaffinity_variance>
0.6396393180

$$$$



 19 20  0  0  0  0  0  0  0  0999 V2000
  -18.9215   14.3700   35.1065 C   0  0  0  0  0  0  0  0  0  0  0  0
  -19.7739   13.4130   35.9643 C   0  0  0  0  0  0  0  0  0  0  0  0
  -19.2585   12.0504   35.5027 C   0  0  0  0  0  0  0  0  0  0  0  0
  -18.0209   11.7318   36.1525 O   0  0  0  0  0  0  0  0  0  0  0  0
  -19.0762   12.2530   33.9914 C   0  0  0  0  0  0  0  0  0  0  0  0
  -18.1790   11.1982   33.3458 C   0  0  0  0  0  0  0  0  0  0  0  0
  -18.7304   13.6838   33.7999 N   0  0  0  0  0  0  0  0  0  0  0  0
  -17.4029   13.9532   33.2611 C   0  0  0  0  0  0  0  0  0  0  0  0
  -17.3754   12.4353   35.9814 H   0  0  0  0  0  0  0  0  0  0  0  0
  -20.7209   18.3133   34.7794 C   0  0  0  0  0  0  0  0  0  0  0  0
  -19.4177   18.0843   34.3415 C   0  0  0  0  0  0  0  0  0  0  0  0
  -18.8543   16.8069   34.4463 C   0  0  0  0  0  0  0  0  0  0  0  0
  -19.5828   15.7346   34.9849 C   0  0  0  0  0  0  0  0  0  0  0  0
  -20.8887   15.9796   35.4306 C   0  0  0  0  0  0  0  0  0  0  0  0
  -21.4497   17.2554   35.3248 C   0  0  0  0  0  0  0  0  0  0  0  0
  -22.2780   19.7828   35.8098 C   0  0  0  0  0  0  0  0  0  0  0  0
  -21.3878   19.5066   34.7363 O   0  0  0  0  0  0  0  0  0  0  0  0
  -19.5272   13.5913   37.3685 O   0  0  0  0  0  0  0  0  0  0  0  0
  -18.3741   14.3883   37.6148 C   0  0  0  0  0  0  0  0  0  0  0  0
 16 17  1  0
 17 10  1  0
 10 11  2  0
 11 12  1  0
 12 13  2  0
  1 13  1  0
  1  2  1  0
  2 18  1  0
 18 19  1  0
  2  3  1  0
  3  4  1  0
  3  5  1  0
  5  6  1  0
  5  7  1  0
  7  8  1  0
 13 14  1  0
 14 15  2  0
 15 10  1  0
  7  1  1  0
  4  9  1  0
M  END
> <minimizedAffinity>
-4.62772

> <CNNscore>
0.2698841691

> <CNNaffinity>
3.1501111984

> <CNN_VS>
0.8501651287

> <CNNaffinity_variance>
0.9451160431

$$$$



 19 20  0  0  0  0  0  0  0  0999 V2000
  -17.0796   14.8088   34.4623 C   0  0  0  0  0  0  0  0  0  0  0  0
  -16.4435   13.4088   34.3457 C   0  0  0  0  0  0  0  0  0  0  0  0
  -17.6689   12.5409   34.0613 C   0  0  0  0  0  0  0  0  0  0  0  0
  -18.0381   12.6259   32.6785 O   0  0  0  0  0  0  0  0  0  0  0  0
  -18.7371   13.1548   34.9779 C   0  0  0  0  0  0  0  0  0  0  0  0
  -20.1617   12.7605   34.5915 C   0  0  0  0  0  0  0  0  0  0  0  0
  -18.4124   14.5988   35.0902 N   0  0  0  0  0  0  0  0  0  0  0  0
  -19.3979   15.5197   34.5369 C   0  0  0  0  0  0  0  0  0  0  0  0
  -18.1938   13.5536   32.4419 H   0  0  0  0  0  0  0  0  0  0  0  0
  -14.4648   17.5369   36.6103 C   0  0  0  0  0  0  0  0  0  0  0  0
  -14.8658   17.8118   35.3042 C   0  0  0  0  0  0  0  0  0  0  0  0
  -15.7146   16.9273   34.6277 C   0  0  0  0  0  0  0  0  0  0  0  0
  -16.1821   15.7560   35.2443 C   0  0  0  0  0  0  0  0  0  0  0  0
  -15.7641   15.4859   36.5543 C   0  0  0  0  0  0  0  0  0  0  0  0
  -14.9171   16.3702   37.2283 C   0  0  0  0  0  0  0  0  0  0  0  0
  -13.8691   19.7146   37.3512 C   0  0  0  0  0  0  0  0  0  0  0  0
  -13.6418   18.3115   37.3807 O   0  0  0  0  0  0  0  0  0  0  0  0
  -15.5134   13.3340   33.2531 O   0  0  0  0  0  0  0  0  0  0  0  0
  -14.4471   12.4287   33.5157 C   0  0  0  0  0  0  0  0  0  0  0  0
 16 17  1  0
 17 10  1  0
 10 11  2  0
 11 12  1  0
 12 13  2  0
  1 13  1  0
  1  2  1  0
  2 18  1  0
 18 19  1  0
  2  3  1  0
  3  4  1  0
  3  5  1  0
  5  6  1  0
  5  7  1  0
  7  8  1  0
 13 14  1  0
 14 15  2  0
 15 10  1  0
  7  1  1  0
  4  9  1  0
M  END
> <minimizedAffinity>
-4.44860

> <CNNscore>
0.2519301474

> <CNNaffinity>
3.7490596771

> <CNN_VS>
0.9445011616

> <CNNaffinity_variance>
0.6130630970

$$$$



 19 20  0  0  0  0  0  0  0  0999 V2000
  -16.2556   13.3907   34.0599 C   0  0  0  0  0  0  0  0  0  0  0  0
  -17.6019   13.0941   33.3687 C   0  0  0  0  0  0  0  0  0  0  0  0
  -17.3072   11.7567   32.6904 C   0  0  0  0  0  0  0  0  0  0  0  0
  -17.4099   10.6797   33.6312 O   0  0  0  0  0  0  0  0  0  0  0  0
  -15.8681   11.9431   32.1882 C   0  0  0  0  0  0  0  0  0  0  0  0
  -15.1733   10.6256   31.8473 C   0  0  0  0  0  0  0  0  0  0  0  0
  -15.2052   12.8604   33.1487 N   0  0  0  0  0  0  0  0  0  0  0  0
  -14.0955   12.2968   33.9077 C   0  0  0  0  0  0  0  0  0  0  0  0
  -16.8105   10.8429   34.3762 H   0  0  0  0  0  0  0  0  0  0  0  0
  -15.9084   17.6510   34.8496 C   0  0  0  0  0  0  0  0  0  0  0  0
  -17.1529   17.0655   34.6239 C   0  0  0  0  0  0  0  0  0  0  0  0
  -17.2496   15.6904   34.3785 C   0  0  0  0  0  0  0  0  0  0  0  0
  -16.1073   14.8748   34.3591 C   0  0  0  0  0  0  0  0  0  0  0  0
  -14.8608   15.4768   34.5778 C   0  0  0  0  0  0  0  0  0  0  0  0
  -14.7661   16.8496   34.8231 C   0  0  0  0  0  0  0  0  0  0  0  0
  -16.6123   19.9032   34.5704 C   0  0  0  0  0  0  0  0  0  0  0  0
  -15.6738   18.9751   35.0988 O   0  0  0  0  0  0  0  0  0  0  0  0
  -18.6694   12.9481   34.3193 O   0  0  0  0  0  0  0  0  0  0  0  0
  -18.1940   12.5805   35.6094 C   0  0  0  0  0  0  0  0  0  0  0  0
 16 17  1  0
 17 10  1  0
 10 11  2  0
 11 12  1  0
 12 13  2  0
  1 13  1  0
  1  2  1  0
  2 18  1  0
 18 19  1  0
  2  3  1  0
  3  4  1  0
  3  5  1  0
  5  6  1  0
  5  7  1  0
  7  8  1  0
 13 14  1  0
 14 15  2  0
 15 10  1  0
  7  1  1  0
  4  9  1  0
M  END
> <minimizedAffinity>
-6.05236

> <CNNscore>
0.2496839911

> <CNNaffinity>
4.0308356285

> <CNN_VS>
1.0064351559

> <CNNaffinity_variance>
0.2452708632

$$$$



 19 20  0  0  0  0  0  0  0  0999 V2000
  -21.6772   10.4022   37.4900 C   0  0  0  0  0  0  0  0  0  0  0  0
  -23.1879   10.2431   37.7553 C   0  0  0  0  0  0  0  0  0  0  0  0
  -23.7859   10.9079   36.5160 C   0  0  0  0  0  0  0  0  0  0  0  0
  -23.7600   10.0098   35.3988 O   0  0  0  0  0  0  0  0  0  0  0  0
  -22.8615   12.1152   36.3016 C   0  0  0  0  0  0  0  0  0  0  0  0
  -22.9661   12.7130   34.8995 C   0  0  0  0  0  0  0  0  0  0  0  0
  -21.5218   11.7092   36.7954 N   0  0  0  0  0  0  0  0  0  0  0  0
  -20.4653   11.6424   35.7932 C   0  0  0  0  0  0  0  0  0  0  0  0
  -22.8494    9.7145   35.2423 H   0  0  0  0  0  0  0  0  0  0  0  0
  -19.4160   10.2152   41.1976 C   0  0  0  0  0  0  0  0  0  0  0  0
  -20.5504   11.0180   41.0926 C   0  0  0  0  0  0  0  0  0  0  0  0
  -21.2730   11.0620   39.8941 C   0  0  0  0  0  0  0  0  0  0  0  0
  -20.8795   10.3020   38.7814 C   0  0  0  0  0  0  0  0  0  0  0  0
  -19.7317    9.5061   38.8963 C   0  0  0  0  0  0  0  0  0  0  0  0
  -19.0119    9.4631   40.0936 C   0  0  0  0  0  0  0  0  0  0  0  0
  -17.2577    9.7535   42.0777 C   0  0  0  0  0  0  0  0  0  0  0  0
  -18.6225   10.0817   42.3035 O   0  0  0  0  0  0  0  0  0  0  0  0
  -23.5766    8.8612   37.8180 O   0  0  0  0  0  0  0  0  0  0  0  0
  -24.5581    8.6237   38.8208 C   0  0  0  0  0  0  0  0  0  0  0  0
 16 17  1  0
 17 10  1  0
 10 11  2  0
 11 12  1  0
 12 13  2  0
  1 13  1  0
  1  2  1  0
  2 18  1  0
 18 19  1  0
  2  3  1  0
  3  4  1  0
  3  5  1  0
  5  6  1  0
  5  7  1  0
  7  8  1  0
 13 14  1  0
 14 15  2  0
 15 10  1  0
  7  1  1  0
  4  9  1  0
M  END
> <minimizedAffinity>
-4.54493

> <CNNscore>
0.2427656204

> <CNNaffinity>
2.8335077763

> <CNN_VS>
0.6878782511

> <CNNaffinity_variance>
0.9707872272

$$$$
