


 34 36  0  0  0  0  0  0  0  0999 V2000
   31.3351   -4.3856   17.8191 C   0  0  0  0  0  0  0  0  0  0  0  0
   31.3932   -3.1915   17.5329 O   0  0  0  0  0  0  0  0  0  0  0  0
   30.3397   -4.9019   18.6302 N   0  0  0  0  0  0  0  0  0  0  0  0
   30.1987   -5.8705   18.7363 H   0  0  0  0  0  0  0  0  0  0  0  0
   34.2766   -7.2281   16.2962 C   0  0  0  0  0  0  0  0  0  0  0  0
   33.0506   -6.9587   15.6474 C   0  0  0  0  0  0  0  0  0  0  0  0
   32.1177   -6.0382   16.1485 C   0  0  0  0  0  0  0  0  0  0  0  0
   32.3662   -5.3390   17.3290 C   0  0  0  0  0  0  0  0  0  0  0  0
   33.5453   -5.5916   18.0234 C   0  0  0  0  0  0  0  0  0  0  0  0
   34.4699   -6.5273   17.5115 C   0  0  0  0  0  0  0  0  0  0  0  0
   35.6554   -9.4014   16.6353 C   0  0  0  0  0  0  0  0  0  0  0  0
   35.2534   -8.2596   15.6742 C   0  0  0  0  0  0  0  0  0  0  0  0
   34.6088   -8.8590   14.4079 C   0  0  0  0  0  0  0  0  0  0  0  0
   36.6002   -7.6166   15.2358 C   0  0  0  0  0  0  0  0  0  0  0  0
   35.6237   -6.7404   18.3627 N   0  0  0  0  0  0  0  0  0  0  0  0
   35.4990   -7.5691   19.2736 O   0  0  0  0  0  0  0  0  0  0  0  0
   36.6563   -6.1218   18.0788 O   0  0  0  0  0  0  0  0  0  0  0  0
   29.5336   -3.9399   19.3005 N   0  0  0  0  0  0  0  0  0  0  0  0
   28.7360   -4.4446   20.3243 C   0  0  0  0  0  0  0  0  0  0  0  0
   28.6101   -5.6535   20.4876 O   0  0  0  0  0  0  0  0  0  0  0  0
   28.1458   -3.4252   21.0391 N   0  0  0  0  0  0  0  0  0  0  0  0
   29.5393   -2.9858   19.0578 H   0  0  0  0  0  0  0  0  0  0  0  0
   28.3055   -2.5150   20.6997 H   0  0  0  0  0  0  0  0  0  0  0  0
   27.3374   -3.5185   22.2012 C   0  0  0  0  0  0  0  0  0  0  0  0
   26.0177   -3.0483   22.1993 C   0  0  0  0  0  0  0  0  0  0  0  0
   25.2165   -3.1530   23.3327 C   0  0  0  0  0  0  0  0  0  0  0  0
   25.7203   -3.7366   24.4885 C   0  0  0  0  0  0  0  0  0  0  0  0
   27.0308   -4.2252   24.5311 C   0  0  0  0  0  0  0  0  0  0  0  0
   27.5023   -4.8145   25.7162 C   0  0  0  0  0  0  0  0  0  0  0  0
   28.7979   -5.3121   25.7961 C   0  0  0  0  0  0  0  0  0  0  0  0
   29.3542   -6.0323   27.2558 Cl  0  0  0  0  0  0  0  0  0  0  0  0
   29.6429   -5.2291   24.7009 C   0  0  0  0  0  0  0  0  0  0  0  0
   29.1860   -4.6448   23.5145 C   0  0  0  0  0  0  0  0  0  0  0  0
   27.8694   -4.1255   23.3861 C   0  0  0  0  0  0  0  0  0  0  0  0
 11 12  1  0
 12 13  1  0
 12 14  1  0
 12  5  1  0
  5  6  2  0
  6  7  1  0
  7  8  2  0
  8  1  1  0
  1  2  2  0
  1  3  1  0
  3 18  1  0
 18 19  1  0
 19 20  2  0
 19 21  1  0
 21 24  1  0
 24 25  2  0
 25 26  1  0
 26 27  2  0
 27 28  1  0
 28 29  2  0
 29 30  1  0
 30 31  1  0
 30 32  2  0
 32 33  1  0
 33 34  2  0
  8  9  1  0
  9 10  2  0
 10 15  1  0
 15 16  2  0
 15 17  1  0
 10  5  1  0
 34 24  1  0
 34 28  1  0
  3  4  1  0
 18 22  1  0
 21 23  1  0
M  CHG 1  15   1
M  CHG 1  17  -1
M  END
> <minimizedAffinity>
-6.62776

> <CNNscore>
0.5392951965

> <CNNaffinity>
6.1872982979

> <CNN_VS>
3.3367803097

> <CNNaffinity_variance>
0.0919252411

$$$$



 34 36  0  0  0  0  0  0  0  0999 V2000
   29.5830   -4.6624   19.7851 C   0  0  0  0  0  0  0  0  0  0  0  0
   30.4239   -5.5499   19.6580 O   0  0  0  0  0  0  0  0  0  0  0  0
   29.3980   -3.6793   18.8287 N   0  0  0  0  0  0  0  0  0  0  0  0
   28.6304   -3.0633   18.8507 H   0  0  0  0  0  0  0  0  0  0  0  0
   27.0560   -4.3131   23.3268 C   0  0  0  0  0  0  0  0  0  0  0  0
   26.9399   -3.4623   22.2046 C   0  0  0  0  0  0  0  0  0  0  0  0
   27.7578   -3.5912   21.0719 C   0  0  0  0  0  0  0  0  0  0  0  0
   28.7369   -4.5817   21.0057 C   0  0  0  0  0  0  0  0  0  0  0  0
   28.9132   -5.4255   22.0982 C   0  0  0  0  0  0  0  0  0  0  0  0
   28.0888   -5.2775   23.2344 C   0  0  0  0  0  0  0  0  0  0  0  0
   25.1511   -5.2874   24.7970 C   0  0  0  0  0  0  0  0  0  0  0  0
   26.1109   -4.1037   24.5385 C   0  0  0  0  0  0  0  0  0  0  0  0
   26.9620   -3.8495   25.7991 C   0  0  0  0  0  0  0  0  0  0  0  0
   25.1810   -2.8691   24.3633 C   0  0  0  0  0  0  0  0  0  0  0  0
   28.4187   -6.1774   24.3218 N   0  0  0  0  0  0  0  0  0  0  0  0
   27.7529   -7.2176   24.4062 O   0  0  0  0  0  0  0  0  0  0  0  0
   29.3727   -5.8642   25.0438 O   0  0  0  0  0  0  0  0  0  0  0  0
   30.3911   -3.6181   17.8115 N   0  0  0  0  0  0  0  0  0  0  0  0
   29.9659   -4.0062   16.5436 C   0  0  0  0  0  0  0  0  0  0  0  0
   28.8732   -4.5388   16.3808 O   0  0  0  0  0  0  0  0  0  0  0  0
   30.9258   -3.7301   15.5945 N   0  0  0  0  0  0  0  0  0  0  0  0
   31.3128   -3.3224   17.9913 H   0  0  0  0  0  0  0  0  0  0  0  0
   31.7773   -3.3737   15.9367 H   0  0  0  0  0  0  0  0  0  0  0  0
   30.8450   -3.8933   14.1876 C   0  0  0  0  0  0  0  0  0  0  0  0
   30.1431   -2.9750   13.3959 C   0  0  0  0  0  0  0  0  0  0  0  0
   30.0755   -3.1231   12.0135 C   0  0  0  0  0  0  0  0  0  0  0  0
   30.7150   -4.1911   11.3968 C   0  0  0  0  0  0  0  0  0  0  0  0
   31.4324   -5.1274   12.1496 C   0  0  0  0  0  0  0  0  0  0  0  0
   32.0712   -6.1904   11.4891 C   0  0  0  0  0  0  0  0  0  0  0  0
   32.7938   -7.1394   12.2031 C   0  0  0  0  0  0  0  0  0  0  0  0
   33.5706   -8.4313   11.3745 Cl  0  0  0  0  0  0  0  0  0  0  0  0
   32.8899   -7.0463   13.5824 C   0  0  0  0  0  0  0  0  0  0  0  0
   32.2589   -5.9927   14.2526 C   0  0  0  0  0  0  0  0  0  0  0  0
   31.5120   -4.9987   13.5642 C   0  0  0  0  0  0  0  0  0  0  0  0
 11 12  1  0
 12 13  1  0
 12 14  1  0
 12  5  1  0
  5  6  2  0
  6  7  1  0
  7  8  2  0
  8  1  1  0
  1  2  2  0
  1  3  1  0
  3 18  1  0
 18 19  1  0
 19 20  2  0
 19 21  1  0
 21 24  1  0
 24 25  2  0
 25 26  1  0
 26 27  2  0
 27 28  1  0
 28 29  2  0
 29 30  1  0
 30 31  1  0
 30 32  2  0
 32 33  1  0
 33 34  2  0
  8  9  1  0
  9 10  2  0
 10 15  1  0
 15 16  2  0
 15 17  1  0
 10  5  1  0
 34 24  1  0
 34 28  1  0
  3  4  1  0
 18 22  1  0
 21 23  1  0
M  CHG 1  15   1
M  CHG 1  17  -1
M  END
> <minimizedAffinity>
-6.82749

> <CNNscore>
0.5064160228

> <CNNaffinity>
6.2912101746

> <CNN_VS>
3.1859695911

> <CNNaffinity_variance>
0.6990932822

$$$$



 34 36  0  0  0  0  0  0  0  0999 V2000
   29.7288   -5.3382   19.8038 C   0  0  0  0  0  0  0  0  0  0  0  0
   29.8945   -6.5103   19.4728 O   0  0  0  0  0  0  0  0  0  0  0  0
   30.2897   -4.2868   19.1000 N   0  0  0  0  0  0  0  0  0  0  0  0
   30.0370   -3.3499   19.2659 H   0  0  0  0  0  0  0  0  0  0  0  0
   27.3607   -4.2150   23.2941 C   0  0  0  0  0  0  0  0  0  0  0  0
   27.2391   -3.5799   22.0377 C   0  0  0  0  0  0  0  0  0  0  0  0
   28.0055   -3.9564   20.9243 C   0  0  0  0  0  0  0  0  0  0  0  0
   28.9356   -4.9913   21.0133 C   0  0  0  0  0  0  0  0  0  0  0  0
   29.1163   -5.6282   22.2373 C   0  0  0  0  0  0  0  0  0  0  0  0
   28.3446   -5.2319   23.3508 C   0  0  0  0  0  0  0  0  0  0  0  0
   27.2745   -3.2182   25.6896 C   0  0  0  0  0  0  0  0  0  0  0  0
   26.4741   -3.7384   24.4739 C   0  0  0  0  0  0  0  0  0  0  0  0
   25.5265   -2.6301   23.9721 C   0  0  0  0  0  0  0  0  0  0  0  0
   25.5791   -4.8754   25.0447 C   0  0  0  0  0  0  0  0  0  0  0  0
   28.6759   -5.9327   24.5757 N   0  0  0  0  0  0  0  0  0  0  0  0
   29.5162   -5.4005   25.3126 O   0  0  0  0  0  0  0  0  0  0  0  0
   28.0547   -6.9749   24.8153 O   0  0  0  0  0  0  0  0  0  0  0  0
   31.2558   -4.6500   18.1205 N   0  0  0  0  0  0  0  0  0  0  0  0
   31.8027   -3.5881   17.4048 C   0  0  0  0  0  0  0  0  0  0  0  0
   31.3322   -2.4591   17.4940 O   0  0  0  0  0  0  0  0  0  0  0  0
   32.8590   -4.0087   16.6265 N   0  0  0  0  0  0  0  0  0  0  0  0
   31.5189   -5.5851   17.9604 H   0  0  0  0  0  0  0  0  0  0  0  0
   33.0337   -4.9776   16.6278 H   0  0  0  0  0  0  0  0  0  0  0  0
   33.7274   -3.2252   15.8235 C   0  0  0  0  0  0  0  0  0  0  0  0
   33.3398   -2.8032   14.5450 C   0  0  0  0  0  0  0  0  0  0  0  0
   34.1827   -2.0208   13.7609 C   0  0  0  0  0  0  0  0  0  0  0  0
   35.4282   -1.6408   14.2452 C   0  0  0  0  0  0  0  0  0  0  0  0
   35.8516   -2.0351   15.5193 C   0  0  0  0  0  0  0  0  0  0  0  0
   37.1155   -1.6255   15.9766 C   0  0  0  0  0  0  0  0  0  0  0  0
   37.5700   -1.9966   17.2368 C   0  0  0  0  0  0  0  0  0  0  0  0
   39.1195   -1.4820   17.7784 Cl  0  0  0  0  0  0  0  0  0  0  0  0
   36.7762   -2.7808   18.0587 C   0  0  0  0  0  0  0  0  0  0  0  0
   35.5154   -3.1953   17.6158 C   0  0  0  0  0  0  0  0  0  0  0  0
   35.0087   -2.8382   16.3370 C   0  0  0  0  0  0  0  0  0  0  0  0
 11 12  1  0
 12 13  1  0
 12 14  1  0
 12  5  1  0
  5  6  2  0
  6  7  1  0
  7  8  2  0
  8  1  1  0
  1  2  2  0
  1  3  1  0
  3 18  1  0
 18 19  1  0
 19 20  2  0
 19 21  1  0
 21 24  1  0
 24 25  2  0
 25 26  1  0
 26 27  2  0
 27 28  1  0
 28 29  2  0
 29 30  1  0
 30 31  1  0
 30 32  2  0
 32 33  1  0
 33 34  2  0
  8  9  1  0
  9 10  2  0
 10 15  1  0
 15 16  2  0
 15 17  1  0
 10  5  1  0
 34 24  1  0
 34 28  1  0
  3  4  1  0
 18 22  1  0
 21 23  1  0
M  CHG 1  15   1
M  CHG 1  17  -1
M  END
> <minimizedAffinity>
-6.87497

> <CNNscore>
0.4914368093

> <CNNaffinity>
6.4043998718

> <CNN_VS>
3.1473579407

> <CNNaffinity_variance>
0.5095841289

$$$$



 34 36  0  0  0  0  0  0  0  0999 V2000
   29.5233   -4.5770   19.6337 C   0  0  0  0  0  0  0  0  0  0  0  0
   30.5602   -5.2311   19.5444 O   0  0  0  0  0  0  0  0  0  0  0  0
   29.1649   -3.6306   18.6896 N   0  0  0  0  0  0  0  0  0  0  0  0
   28.2712   -3.2181   18.6727 H   0  0  0  0  0  0  0  0  0  0  0  0
   26.8365   -4.9556   23.0526 C   0  0  0  0  0  0  0  0  0  0  0  0
   27.0891   -3.7296   22.3971 C   0  0  0  0  0  0  0  0  0  0  0  0
   27.9528   -3.6262   21.2962 C   0  0  0  0  0  0  0  0  0  0  0  0
   28.6096   -4.7492   20.7946 C   0  0  0  0  0  0  0  0  0  0  0  0
   28.4194   -5.9753   21.4245 C   0  0  0  0  0  0  0  0  0  0  0  0
   27.5547   -6.0618   22.5368 C   0  0  0  0  0  0  0  0  0  0  0  0
   25.5382   -3.5857   24.8350 C   0  0  0  0  0  0  0  0  0  0  0  0
   25.8662   -4.9833   24.2621 C   0  0  0  0  0  0  0  0  0  0  0  0
   24.5588   -5.6833   23.8390 C   0  0  0  0  0  0  0  0  0  0  0  0
   26.4383   -5.7827   25.4676 C   0  0  0  0  0  0  0  0  0  0  0  0
   27.4953   -7.3809   23.1348 N   0  0  0  0  0  0  0  0  0  0  0  0
   26.5445   -8.1009   22.8033 O   0  0  0  0  0  0  0  0  0  0  0  0
   28.4257   -7.7037   23.8829 O   0  0  0  0  0  0  0  0  0  0  0  0
   30.1741   -3.2933   17.7449 N   0  0  0  0  0  0  0  0  0  0  0  0
   29.9553   -3.7602   16.4514 C   0  0  0  0  0  0  0  0  0  0  0  0
   29.0565   -4.5599   16.2135 O   0  0  0  0  0  0  0  0  0  0  0  0
   30.8711   -3.2256   15.5716 N   0  0  0  0  0  0  0  0  0  0  0  0
   30.9701   -2.7675   17.9884 H   0  0  0  0  0  0  0  0  0  0  0  0
   31.5722   -2.6623   15.9719 H   0  0  0  0  0  0  0  0  0  0  0  0
   30.9336   -3.3824   14.1630 C   0  0  0  0  0  0  0  0  0  0  0  0
   30.2534   -2.5032   13.3103 C   0  0  0  0  0  0  0  0  0  0  0  0
   30.3258   -2.6444   11.9274 C   0  0  0  0  0  0  0  0  0  0  0  0
   31.0862   -3.6658   11.3718 C   0  0  0  0  0  0  0  0  0  0  0  0
   31.7866   -4.5616   12.1872 C   0  0  0  0  0  0  0  0  0  0  0  0
   32.5500   -5.5777   11.5880 C   0  0  0  0  0  0  0  0  0  0  0  0
   33.2600   -6.4855   12.3653 C   0  0  0  0  0  0  0  0  0  0  0  0
   34.1907   -7.7202   11.6114 Cl  0  0  0  0  0  0  0  0  0  0  0  0
   33.2197   -6.3976   13.7477 C   0  0  0  0  0  0  0  0  0  0  0  0
   32.4636   -5.3904   14.3573 C   0  0  0  0  0  0  0  0  0  0  0  0
   31.7243   -4.4393   13.6033 C   0  0  0  0  0  0  0  0  0  0  0  0
 11 12  1  0
 12 13  1  0
 12 14  1  0
 12  5  1  0
  5  6  2  0
  6  7  1  0
  7  8  2  0
  8  1  1  0
  1  2  2  0
  1  3  1  0
  3 18  1  0
 18 19  1  0
 19 20  2  0
 19 21  1  0
 21 24  1  0
 24 25  2  0
 25 26  1  0
 26 27  2  0
 27 28  1  0
 28 29  2  0
 29 30  1  0
 30 31  1  0
 30 32  2  0
 32 33  1  0
 33 34  2  0
  8  9  1  0
  9 10  2  0
 10 15  1  0
 15 16  2  0
 15 17  1  0
 10  5  1  0
 34 24  1  0
 34 28  1  0
  3  4  1  0
 18 22  1  0
 21 23  1  0
M  CHG 1  15   1
M  CHG 1  17  -1
M  END
> <minimizedAffinity>
-6.87373

> <CNNscore>
0.4597126842

> <CNNaffinity>
6.1518263817

> <CNN_VS>
2.8280725479

> <CNNaffinity_variance>
0.7339022756

$$$$



 34 36  0  0  0  0  0  0  0  0999 V2000
   29.9908   -4.9754   17.2573 C   0  0  0  0  0  0  0  0  0  0  0  0
   29.0715   -4.3453   16.7387 O   0  0  0  0  0  0  0  0  0  0  0  0
   30.2314   -4.9417   18.6198 N   0  0  0  0  0  0  0  0  0  0  0  0
   30.8619   -5.5585   19.0570 H   0  0  0  0  0  0  0  0  0  0  0  0
   32.8022   -7.3668   14.9274 C   0  0  0  0  0  0  0  0  0  0  0  0
   32.8933   -7.2101   16.3288 C   0  0  0  0  0  0  0  0  0  0  0  0
   31.9781   -6.4408   17.0633 C   0  0  0  0  0  0  0  0  0  0  0  0
   30.9222   -5.7873   16.4292 C   0  0  0  0  0  0  0  0  0  0  0  0
   30.8065   -5.8839   15.0459 C   0  0  0  0  0  0  0  0  0  0  0  0
   31.7404   -6.6538   14.3196 C   0  0  0  0  0  0  0  0  0  0  0  0
   34.9193   -8.8563   15.1249 C   0  0  0  0  0  0  0  0  0  0  0  0
   33.8546   -8.2363   14.1914 C   0  0  0  0  0  0  0  0  0  0  0  0
   33.1280   -9.3602   13.4253 C   0  0  0  0  0  0  0  0  0  0  0  0
   34.6692   -7.4264   13.1425 C   0  0  0  0  0  0  0  0  0  0  0  0
   31.5417   -6.6194   12.8841 N   0  0  0  0  0  0  0  0  0  0  0  0
   30.7528   -7.4474   12.4105 O   0  0  0  0  0  0  0  0  0  0  0  0
   32.1301   -5.7326   12.2541 O   0  0  0  0  0  0  0  0  0  0  0  0
   29.5068   -3.9562   19.3467 N   0  0  0  0  0  0  0  0  0  0  0  0
   28.7000   -4.4478   20.3696 C   0  0  0  0  0  0  0  0  0  0  0  0
   28.4968   -5.6514   20.4889 O   0  0  0  0  0  0  0  0  0  0  0  0
   28.1956   -3.4213   21.1379 N   0  0  0  0  0  0  0  0  0  0  0  0
   29.5713   -2.9956   19.1412 H   0  0  0  0  0  0  0  0  0  0  0  0
   28.4086   -2.5107   20.8302 H   0  0  0  0  0  0  0  0  0  0  0  0
   27.4087   -3.5077   22.3152 C   0  0  0  0  0  0  0  0  0  0  0  0
   26.0993   -3.0104   22.3435 C   0  0  0  0  0  0  0  0  0  0  0  0
   25.3188   -3.1080   23.4919 C   0  0  0  0  0  0  0  0  0  0  0  0
   25.8333   -3.7116   24.6326 C   0  0  0  0  0  0  0  0  0  0  0  0
   27.1339   -4.2275   24.6450 C   0  0  0  0  0  0  0  0  0  0  0  0
   27.6165   -4.8364   25.8157 C   0  0  0  0  0  0  0  0  0  0  0  0
   28.9028   -5.3612   25.8656 C   0  0  0  0  0  0  0  0  0  0  0  0
   29.4729   -6.1051   27.3080 Cl  0  0  0  0  0  0  0  0  0  0  0  0
   29.7274   -5.2865   24.7543 C   0  0  0  0  0  0  0  0  0  0  0  0
   29.2592   -4.6830   23.5821 C   0  0  0  0  0  0  0  0  0  0  0  0
   27.9515   -4.1355   23.4842 C   0  0  0  0  0  0  0  0  0  0  0  0
 11 12  1  0
 12 13  1  0
 12 14  1  0
 12  5  1  0
  5  6  2  0
  6  7  1  0
  7  8  2  0
  8  1  1  0
  1  2  2  0
  1  3  1  0
  3 18  1  0
 18 19  1  0
 19 20  2  0
 19 21  1  0
 21 24  1  0
 24 25  2  0
 25 26  1  0
 26 27  2  0
 27 28  1  0
 28 29  2  0
 29 30  1  0
 30 31  1  0
 30 32  2  0
 32 33  1  0
 33 34  2  0
  8  9  1  0
  9 10  2  0
 10 15  1  0
 15 16  2  0
 15 17  1  0
 10  5  1  0
 34 24  1  0
 34 28  1  0
  3  4  1  0
 18 22  1  0
 21 23  1  0
M  CHG 1  15   1
M  CHG 1  17  -1
M  END
> <minimizedAffinity>
-6.51070

> <CNNscore>
0.4534907043

> <CNNaffinity>
6.2685050964

> <CNN_VS>
2.8427088261

> <CNNaffinity_variance>
0.0876345858

$$$$



 34 36  0  0  0  0  0  0  0  0999 V2000
   30.8795   -3.8976   17.8137 C   0  0  0  0  0  0  0  0  0  0  0  0
   29.9990   -3.6949   16.9802 O   0  0  0  0  0  0  0  0  0  0  0  0
   30.6119   -4.4713   19.0443 N   0  0  0  0  0  0  0  0  0  0  0  0
   31.3274   -4.7754   19.6484 H   0  0  0  0  0  0  0  0  0  0  0  0
   34.9722   -2.6061   17.0182 C   0  0  0  0  0  0  0  0  0  0  0  0
   33.9011   -1.7070   17.2208 C   0  0  0  0  0  0  0  0  0  0  0  0
   32.5916   -2.1392   17.4798 C   0  0  0  0  0  0  0  0  0  0  0  0
   32.2876   -3.4983   17.5490 C   0  0  0  0  0  0  0  0  0  0  0  0
   33.3011   -4.4252   17.3252 C   0  0  0  0  0  0  0  0  0  0  0  0
   34.6116   -3.9750   17.0565 C   0  0  0  0  0  0  0  0  0  0  0  0
   37.4715   -2.5557   17.7187 C   0  0  0  0  0  0  0  0  0  0  0  0
   36.3908   -2.0452   16.7386 C   0  0  0  0  0  0  0  0  0  0  0  0
   36.7964   -2.4064   15.2952 C   0  0  0  0  0  0  0  0  0  0  0  0
   36.4523   -0.4950   16.8518 C   0  0  0  0  0  0  0  0  0  0  0  0
   35.5550   -5.0406   16.7816 N   0  0  0  0  0  0  0  0  0  0  0  0
   36.0612   -5.6035   17.7610 O   0  0  0  0  0  0  0  0  0  0  0  0
   35.7373   -5.3410   15.5958 O   0  0  0  0  0  0  0  0  0  0  0  0
   29.2342   -4.5925   19.3785 N   0  0  0  0  0  0  0  0  0  0  0  0
   28.9378   -4.4533   20.7320 C   0  0  0  0  0  0  0  0  0  0  0  0
   29.8302   -4.4233   21.5727 O   0  0  0  0  0  0  0  0  0  0  0  0
   27.5767   -4.3885   20.9357 N   0  0  0  0  0  0  0  0  0  0  0  0
   28.5401   -4.7625   18.7013 H   0  0  0  0  0  0  0  0  0  0  0  0
   27.0168   -4.5145   20.1358 H   0  0  0  0  0  0  0  0  0  0  0  0
   26.8782   -4.1636   22.1499 C   0  0  0  0  0  0  0  0  0  0  0  0
   26.3909   -2.8908   22.4744 C   0  0  0  0  0  0  0  0  0  0  0  0
   25.6910   -2.6701   23.6572 C   0  0  0  0  0  0  0  0  0  0  0  0
   25.4604   -3.7219   24.5350 C   0  0  0  0  0  0  0  0  0  0  0  0
   25.9240   -5.0102   24.2461 C   0  0  0  0  0  0  0  0  0  0  0  0
   25.6655   -6.0495   25.1557 C   0  0  0  0  0  0  0  0  0  0  0  0
   26.1092   -7.3424   24.9025 C   0  0  0  0  0  0  0  0  0  0  0  0
   25.7795   -8.6008   26.0280 Cl  0  0  0  0  0  0  0  0  0  0  0  0
   26.8170   -7.6198   23.7438 C   0  0  0  0  0  0  0  0  0  0  0  0
   27.0810   -6.5941   22.8295 C   0  0  0  0  0  0  0  0  0  0  0  0
   26.6451   -5.2588   23.0451 C   0  0  0  0  0  0  0  0  0  0  0  0
 11 12  1  0
 12 13  1  0
 12 14  1  0
 12  5  1  0
  5  6  2  0
  6  7  1  0
  7  8  2  0
  8  1  1  0
  1  2  2  0
  1  3  1  0
  3 18  1  0
 18 19  1  0
 19 20  2  0
 19 21  1  0
 21 24  1  0
 24 25  2  0
 25 26  1  0
 26 27  2  0
 27 28  1  0
 28 29  2  0
 29 30  1  0
 30 31  1  0
 30 32  2  0
 32 33  1  0
 33 34  2  0
  8  9  1  0
  9 10  2  0
 10 15  1  0
 15 16  2  0
 15 17  1  0
 10  5  1  0
 34 24  1  0
 34 28  1  0
  3  4  1  0
 18 22  1  0
 21 23  1  0
M  CHG 1  15   1
M  CHG 1  17  -1
M  END
> <minimizedAffinity>
-6.80752

> <CNNscore>
0.4249735177

> <CNNaffinity>
6.2160582542

> <CNN_VS>
2.6416602135

> <CNNaffinity_variance>
0.1870221645

$$$$



 34 36  0  0  0  0  0  0  0  0999 V2000
   30.0092   -5.5294   19.9039 C   0  0  0  0  0  0  0  0  0  0  0  0
   30.5267   -4.6655   19.1990 O   0  0  0  0  0  0  0  0  0  0  0  0
   30.1864   -6.8808   19.6637 N   0  0  0  0  0  0  0  0  0  0  0  0
   29.9055   -7.5698   20.3084 H   0  0  0  0  0  0  0  0  0  0  0  0
   27.3846   -4.3371   23.1812 C   0  0  0  0  0  0  0  0  0  0  0  0
   27.3405   -3.7462   21.8985 C   0  0  0  0  0  0  0  0  0  0  0  0
   28.1890   -4.1445   20.8544 C   0  0  0  0  0  0  0  0  0  0  0  0
   29.1278   -5.1580   21.0430 C   0  0  0  0  0  0  0  0  0  0  0  0
   29.2331   -5.7506   22.2976 C   0  0  0  0  0  0  0  0  0  0  0  0
   28.3789   -5.3327   23.3407 C   0  0  0  0  0  0  0  0  0  0  0  0
   25.6131   -4.9689   24.9707 C   0  0  0  0  0  0  0  0  0  0  0  0
   26.4099   -3.8388   24.2798 C   0  0  0  0  0  0  0  0  0  0  0  0
   27.2091   -3.0537   25.3395 C   0  0  0  0  0  0  0  0  0  0  0  0
   25.3261   -2.8723   23.7220 C   0  0  0  0  0  0  0  0  0  0  0  0
   28.6355   -5.9863   24.6089 N   0  0  0  0  0  0  0  0  0  0  0  0
   29.4126   -5.4138   25.3839 O   0  0  0  0  0  0  0  0  0  0  0  0
   28.0170   -7.0320   24.8400 O   0  0  0  0  0  0  0  0  0  0  0  0
   30.8016   -7.2082   18.4232 N   0  0  0  0  0  0  0  0  0  0  0  0
   29.9263   -7.5902   17.4098 C   0  0  0  0  0  0  0  0  0  0  0  0
   28.7428   -7.8069   17.6476 O   0  0  0  0  0  0  0  0  0  0  0  0
   30.5832   -7.6963   16.2033 N   0  0  0  0  0  0  0  0  0  0  0  0
   31.7763   -7.1675   18.2908 H   0  0  0  0  0  0  0  0  0  0  0  0
   31.5579   -7.5610   16.2324 H   0  0  0  0  0  0  0  0  0  0  0  0
   30.0357   -7.9754   14.9246 C   0  0  0  0  0  0  0  0  0  0  0  0
   29.7697   -9.2923   14.5277 C   0  0  0  0  0  0  0  0  0  0  0  0
   29.2175   -9.5686   13.2802 C   0  0  0  0  0  0  0  0  0  0  0  0
   28.9154   -8.5300   12.4084 C   0  0  0  0  0  0  0  0  0  0  0  0
   29.1589   -7.1998   12.7680 C   0  0  0  0  0  0  0  0  0  0  0  0
   28.8339   -6.1764   11.8617 C   0  0  0  0  0  0  0  0  0  0  0  0
   29.0604   -4.8432   12.1839 C   0  0  0  0  0  0  0  0  0  0  0  0
   28.6525   -3.6057   11.0610 Cl  0  0  0  0  0  0  0  0  0  0  0  0
   29.6143   -4.5089   13.4094 C   0  0  0  0  0  0  0  0  0  0  0  0
   29.9424   -5.5182   14.3212 C   0  0  0  0  0  0  0  0  0  0  0  0
   29.7264   -6.8936   14.0362 C   0  0  0  0  0  0  0  0  0  0  0  0
 11 12  1  0
 12 13  1  0
 12 14  1  0
 12  5  1  0
  5  6  2  0
  6  7  1  0
  7  8  2  0
  8  1  1  0
  1  2  2  0
  1  3  1  0
  3 18  1  0
 18 19  1  0
 19 20  2  0
 19 21  1  0
 21 24  1  0
 24 25  2  0
 25 26  1  0
 26 27  2  0
 27 28  1  0
 28 29  2  0
 29 30  1  0
 30 31  1  0
 30 32  2  0
 32 33  1  0
 33 34  2  0
  8  9  1  0
  9 10  2  0
 10 15  1  0
 15 16  2  0
 15 17  1  0
 10  5  1  0
 34 24  1  0
 34 28  1  0
  3  4  1  0
 18 22  1  0
 21 23  1  0
M  CHG 1  15   1
M  CHG 1  17  -1
M  END
> <minimizedAffinity>
-5.95135

> <CNNscore>
0.4189229310

> <CNNaffinity>
6.0867214203

> <CNN_VS>
2.5498671532

> <CNNaffinity_variance>
0.4104746878

$$$$



 34 36  0  0  0  0  0  0  0  0999 V2000
   29.5281   -4.8773   19.6343 C   0  0  0  0  0  0  0  0  0  0  0  0
   30.2423   -5.8667   19.4856 O   0  0  0  0  0  0  0  0  0  0  0  0
   29.4217   -3.8928   18.6675 N   0  0  0  0  0  0  0  0  0  0  0  0
   28.7404   -3.1835   18.7133 H   0  0  0  0  0  0  0  0  0  0  0  0
   27.2275   -4.1673   23.2750 C   0  0  0  0  0  0  0  0  0  0  0  0
   27.0117   -3.4596   22.0711 C   0  0  0  0  0  0  0  0  0  0  0  0
   27.7578   -3.7035   20.9081 C   0  0  0  0  0  0  0  0  0  0  0  0
   28.7612   -4.6715   20.8920 C   0  0  0  0  0  0  0  0  0  0  0  0
   29.0348   -5.3743   22.0614 C   0  0  0  0  0  0  0  0  0  0  0  0
   28.2820   -5.1112   23.2261 C   0  0  0  0  0  0  0  0  0  0  0  0
   25.4224   -2.6217   24.3201 C   0  0  0  0  0  0  0  0  0  0  0  0
   26.3572   -3.8371   24.5154 C   0  0  0  0  0  0  0  0  0  0  0  0
   25.5161   -5.0768   24.8811 C   0  0  0  0  0  0  0  0  0  0  0  0
   27.2115   -3.4842   25.7666 C   0  0  0  0  0  0  0  0  0  0  0  0
   28.7103   -5.8668   24.3866 N   0  0  0  0  0  0  0  0  0  0  0  0
   29.5897   -5.3550   25.0916 O   0  0  0  0  0  0  0  0  0  0  0  0
   28.1264   -6.9333   24.6126 O   0  0  0  0  0  0  0  0  0  0  0  0
   30.3623   -3.9736   17.6030 N   0  0  0  0  0  0  0  0  0  0  0  0
   29.8635   -4.4872   16.4087 C   0  0  0  0  0  0  0  0  0  0  0  0
   28.7516   -5.0024   16.3597 O   0  0  0  0  0  0  0  0  0  0  0  0
   30.7796   -4.3462   15.3892 N   0  0  0  0  0  0  0  0  0  0  0  0
   31.2988   -3.6870   17.7036 H   0  0  0  0  0  0  0  0  0  0  0  0
   31.6558   -3.9792   15.6477 H   0  0  0  0  0  0  0  0  0  0  0  0
   30.6227   -4.6619   14.0150 C   0  0  0  0  0  0  0  0  0  0  0  0
   30.6135   -5.9933   13.5792 C   0  0  0  0  0  0  0  0  0  0  0  0
   30.4435   -6.3071   12.2338 C   0  0  0  0  0  0  0  0  0  0  0  0
   30.2733   -5.2929   11.2996 C   0  0  0  0  0  0  0  0  0  0  0  0
   30.2695   -3.9502   11.6933 C   0  0  0  0  0  0  0  0  0  0  0  0
   30.0881   -2.9532   10.7201 C   0  0  0  0  0  0  0  0  0  0  0  0
   30.0774   -1.6087   11.0733 C   0  0  0  0  0  0  0  0  0  0  0  0
   29.8510   -0.4041    9.8664 Cl  0  0  0  0  0  0  0  0  0  0  0  0
   30.2486   -1.2366   12.3972 C   0  0  0  0  0  0  0  0  0  0  0  0
   30.4300   -2.2194   13.3764 C   0  0  0  0  0  0  0  0  0  0  0  0
   30.4454   -3.6053   13.0624 C   0  0  0  0  0  0  0  0  0  0  0  0
 11 12  1  0
 12 13  1  0
 12 14  1  0
 12  5  1  0
  5  6  2  0
  6  7  1  0
  7  8  2  0
  8  1  1  0
  1  2  2  0
  1  3  1  0
  3 18  1  0
 18 19  1  0
 19 20  2  0
 19 21  1  0
 21 24  1  0
 24 25  2  0
 25 26  1  0
 26 27  2  0
 27 28  1  0
 28 29  2  0
 29 30  1  0
 30 31  1  0
 30 32  2  0
 32 33  1  0
 33 34  2  0
  8  9  1  0
  9 10  2  0
 10 15  1  0
 15 16  2  0
 15 17  1  0
 10  5  1  0
 34 24  1  0
 34 28  1  0
  3  4  1  0
 18 22  1  0
 21 23  1  0
M  CHG 1  15   1
M  CHG 1  17  -1
M  END
> <minimizedAffinity>
-6.94512

> <CNNscore>
0.3915446699

> <CNNaffinity>
6.0951652527

> <CNN_VS>
2.3865294456

> <CNNaffinity_variance>
0.5702039003

$$$$



 34 36  0  0  0  0  0  0  0  0999 V2000
   29.2510   -4.8598   19.4473 C   0  0  0  0  0  0  0  0  0  0  0  0
   29.4630   -5.9681   18.9597 O   0  0  0  0  0  0  0  0  0  0  0  0
   29.3793   -3.6941   18.7123 N   0  0  0  0  0  0  0  0  0  0  0  0
   29.0645   -2.8240   19.0488 H   0  0  0  0  0  0  0  0  0  0  0  0
   28.2520   -4.5018   23.6811 C   0  0  0  0  0  0  0  0  0  0  0  0
   29.4978   -4.9798   23.2162 C   0  0  0  0  0  0  0  0  0  0  0  0
   29.8043   -5.0845   21.8510 C   0  0  0  0  0  0  0  0  0  0  0  0
   28.8753   -4.7149   20.8791 C   0  0  0  0  0  0  0  0  0  0  0  0
   27.6215   -4.2676   21.2844 C   0  0  0  0  0  0  0  0  0  0  0  0
   27.3246   -4.1766   22.6614 C   0  0  0  0  0  0  0  0  0  0  0  0
   29.0711   -5.1183   26.0661 C   0  0  0  0  0  0  0  0  0  0  0  0
   27.9943   -4.4160   25.2080 C   0  0  0  0  0  0  0  0  0  0  0  0
   27.9007   -2.9320   25.6171 C   0  0  0  0  0  0  0  0  0  0  0  0
   26.6542   -5.0863   25.6254 C   0  0  0  0  0  0  0  0  0  0  0  0
   25.9662   -3.7569   22.9439 N   0  0  0  0  0  0  0  0  0  0  0  0
   25.7555   -2.5377   22.9797 O   0  0  0  0  0  0  0  0  0  0  0  0
   25.1158   -4.6458   23.0708 O   0  0  0  0  0  0  0  0  0  0  0  0
   29.9963   -3.8366   17.4381 N   0  0  0  0  0  0  0  0  0  0  0  0
   31.3294   -3.4391   17.3771 C   0  0  0  0  0  0  0  0  0  0  0  0
   31.8508   -2.8366   18.3094 O   0  0  0  0  0  0  0  0  0  0  0  0
   31.8959   -3.7927   16.1719 N   0  0  0  0  0  0  0  0  0  0  0  0
   29.5151   -4.1910   16.6557 H   0  0  0  0  0  0  0  0  0  0  0  0
   31.2866   -4.2006   15.5149 H   0  0  0  0  0  0  0  0  0  0  0  0
   33.2441   -3.6447   15.7559 C   0  0  0  0  0  0  0  0  0  0  0  0
   34.1470   -4.7118   15.8490 C   0  0  0  0  0  0  0  0  0  0  0  0
   35.4663   -4.5750   15.4267 C   0  0  0  0  0  0  0  0  0  0  0  0
   35.9048   -3.3678   14.8970 C   0  0  0  0  0  0  0  0  0  0  0  0
   35.0339   -2.2789   14.7799 C   0  0  0  0  0  0  0  0  0  0  0  0
   35.5129   -1.0764   14.2332 C   0  0  0  0  0  0  0  0  0  0  0  0
   34.6772    0.0265   14.1001 C   0  0  0  0  0  0  0  0  0  0  0  0
   35.2830    1.4883   13.4255 Cl  0  0  0  0  0  0  0  0  0  0  0  0
   33.3556   -0.0496   14.5100 C   0  0  0  0  0  0  0  0  0  0  0  0
   32.8657   -1.2411   15.0559 C   0  0  0  0  0  0  0  0  0  0  0  0
   33.6822   -2.3941   15.2087 C   0  0  0  0  0  0  0  0  0  0  0  0
 11 12  1  0
 12 13  1  0
 12 14  1  0
 12  5  1  0
  5  6  2  0
  6  7  1  0
  7  8  2  0
  8  1  1  0
  1  2  2  0
  1  3  1  0
  3 18  1  0
 18 19  1  0
 19 20  2  0
 19 21  1  0
 21 24  1  0
 24 25  2  0
 25 26  1  0
 26 27  2  0
 27 28  1  0
 28 29  2  0
 29 30  1  0
 30 31  1  0
 30 32  2  0
 32 33  1  0
 33 34  2  0
  8  9  1  0
  9 10  2  0
 10 15  1  0
 15 16  2  0
 15 17  1  0
 10  5  1  0
 34 24  1  0
 34 28  1  0
  3  4  1  0
 18 22  1  0
 21 23  1  0
M  CHG 1  15   1
M  CHG 1  17  -1
M  END
> <minimizedAffinity>
-6.23551

> <CNNscore>
0.3782020807

> <CNNaffinity>
6.2448515892

> <CNN_VS>
2.3618159294

> <CNNaffinity_variance>
0.2478425950

$$$$
