


 27 28  0  0  0  0  0  0  0  0999 V2000
   13.4234    2.8803   38.8069 C   0  0  0  0  0  0  0  0  0  0  0  0
   13.6015    3.3267   40.2481 C   0  0  0  0  0  0  0  0  0  0  0  0
   14.3018    4.2880   40.5794 O   0  0  0  0  0  0  0  0  0  0  0  0
   12.9255    2.4863   41.3296 C   0  0  0  0  0  0  0  0  0  0  0  0
   12.5536    3.3380   42.4121 O   0  0  0  0  0  0  0  0  0  0  0  0
   11.6877    1.7629   40.7947 C   0  0  0  0  0  0  0  0  0  0  0  0
   12.0455    0.4886   40.2685 O   0  0  0  0  0  0  0  0  0  0  0  0
   10.9997    2.5661   39.6959 C   0  0  0  0  0  0  0  0  0  0  0  0
   11.9106    2.8531   38.4811 C   0  0  0  0  0  0  0  0  0  0  0  0
   11.5031    4.1412   37.9914 O   0  0  0  0  0  0  0  0  0  0  0  0
   11.9262    4.0069   42.0963 H   0  0  0  0  0  0  0  0  0  0  0  0
   12.6575    0.6060   39.5252 H   0  0  0  0  0  0  0  0  0  0  0  0
   10.5550    4.1242   37.7871 H   0  0  0  0  0  0  0  0  0  0  0  0
   11.6389    1.7797   37.4023 C   0  0  0  0  0  0  0  0  0  0  0  0
   11.2362    0.6398   37.5515 O   0  0  0  0  0  0  0  0  0  0  0  0
   11.9063    2.2488   36.1572 O   0  0  0  0  0  0  0  0  0  0  0  0
   12.2161    3.1257   36.0435 H   0  0  0  0  0  0  0  0  0  0  0  0
   14.2774    3.7627   37.8700 C   0  0  0  0  0  0  0  0  0  0  0  0
   18.2025    2.1771   36.9515 C   0  0  0  0  0  0  0  0  0  0  0  0
   17.9806    2.8828   38.1369 C   0  0  0  0  0  0  0  0  0  0  0  0
   16.7183    3.4036   38.4374 C   0  0  0  0  0  0  0  0  0  0  0  0
   15.6480    3.2138   37.5560 C   0  0  0  0  0  0  0  0  0  0  0  0
   15.8880    2.5116   36.3708 C   0  0  0  0  0  0  0  0  0  0  0  0
   14.8929    2.3145   35.4944 F   0  0  0  0  0  0  0  0  0  0  0  0
   17.1461    1.9937   36.0643 C   0  0  0  0  0  0  0  0  0  0  0  0
   19.7928    1.1247   35.5327 C   0  0  0  0  0  0  0  0  0  0  0  0
   19.4814    1.7228   36.7852 O   0  0  0  0  0  0  0  0  0  0  0  0
 26 27  1  0
 27 19  1  0
 19 20  2  0
 20 21  1  0
 21 22  2  0
 22 18  1  0
  1 18  1  0
  1  2  1  0
  2  3  2  0
  2  4  1  0
  4  5  1  0
  4  6  1  0
  6  7  1  0
  6  8  1  0
  8  9  1  0
  9 10  1  0
  9 14  1  0
 14 15  2  0
 14 16  1  0
 22 23  1  0
 23 24  1  0
 23 25  2  0
 25 19  1  0
  9  1  1  0
  5 11  1  0
  7 12  1  0
 10 13  1  0
 16 17  1  0
M  END
> <minimizedAffinity>
-10.21104

> <CNNscore>
0.9816181660

> <CNNaffinity>
6.2994551659

> <CNN_VS>
6.1836595535

> <CNNaffinity_variance>
0.1828745008

$$$$



 27 28  0  0  0  0  0  0  0  0999 V2000
   12.9379    3.6099   38.7855 C   0  0  0  0  0  0  0  0  0  0  0  0
   12.4173    2.7661   37.6344 C   0  0  0  0  0  0  0  0  0  0  0  0
   12.9033    2.7918   36.4998 O   0  0  0  0  0  0  0  0  0  0  0  0
   11.1864    1.9019   37.9012 C   0  0  0  0  0  0  0  0  0  0  0  0
   11.2664    0.7237   37.1007 O   0  0  0  0  0  0  0  0  0  0  0  0
   11.0742    1.5150   39.3774 C   0  0  0  0  0  0  0  0  0  0  0  0
   10.3294    2.4957   40.0930 O   0  0  0  0  0  0  0  0  0  0  0  0
   12.4471    1.3783   40.0273 C   0  0  0  0  0  0  0  0  0  0  0  0
   13.2886    2.6729   39.9663 C   0  0  0  0  0  0  0  0  0  0  0  0
   14.6530    2.2388   39.8443 O   0  0  0  0  0  0  0  0  0  0  0  0
   12.0607    0.2220   37.3422 H   0  0  0  0  0  0  0  0  0  0  0  0
   10.7914    3.3475   40.0499 H   0  0  0  0  0  0  0  0  0  0  0  0
   14.8728    1.6515   40.5843 H   0  0  0  0  0  0  0  0  0  0  0  0
   13.1060    3.4374   41.2976 C   0  0  0  0  0  0  0  0  0  0  0  0
   13.9578    3.7808   42.0976 O   0  0  0  0  0  0  0  0  0  0  0  0
   11.8003    3.7269   41.5284 O   0  0  0  0  0  0  0  0  0  0  0  0
   11.1458    3.4624   40.9123 H   0  0  0  0  0  0  0  0  0  0  0  0
   14.0953    4.5105   38.3005 C   0  0  0  0  0  0  0  0  0  0  0  0
   17.8272    2.4444   37.5463 C   0  0  0  0  0  0  0  0  0  0  0  0
   16.7686    2.3537   36.6388 C   0  0  0  0  0  0  0  0  0  0  0  0
   15.5585    3.0120   36.8784 C   0  0  0  0  0  0  0  0  0  0  0  0
   15.3926    3.7871   38.0316 C   0  0  0  0  0  0  0  0  0  0  0  0
   16.4588    3.8621   38.9333 C   0  0  0  0  0  0  0  0  0  0  0  0
   16.3395    4.5866   40.0549 F   0  0  0  0  0  0  0  0  0  0  0  0
   17.6663    3.2040   38.7012 C   0  0  0  0  0  0  0  0  0  0  0  0
   19.2495    1.6890   35.7982 C   0  0  0  0  0  0  0  0  0  0  0  0
   18.9511    1.7532   37.1875 O   0  0  0  0  0  0  0  0  0  0  0  0
 26 27  1  0
 27 19  1  0
 19 20  2  0
 20 21  1  0
 21 22  2  0
 22 18  1  0
  1 18  1  0
  1  2  1  0
  2  3  2  0
  2  4  1  0
  4  5  1  0
  4  6  1  0
  6  7  1  0
  6  8  1  0
  8  9  1  0
  9 10  1  0
  9 14  1  0
 14 15  2  0
 14 16  1  0
 22 23  1  0
 23 24  1  0
 23 25  2  0
 25 19  1  0
  9  1  1  0
  5 11  1  0
  7 12  1  0
 10 13  1  0
 16 17  1  0
M  END
> <minimizedAffinity>
-9.79738

> <CNNscore>
0.7335214019

> <CNNaffinity>
5.7384333611

> <CNN_VS>
4.2092638016

> <CNNaffinity_variance>
0.2209325880

$$$$



 27 28  0  0  0  0  0  0  0  0999 V2000
   14.4426    3.1605   38.6296 C   0  0  0  0  0  0  0  0  0  0  0  0
   14.2970    3.4619   40.1115 C   0  0  0  0  0  0  0  0  0  0  0  0
   14.9675    4.3155   40.6998 O   0  0  0  0  0  0  0  0  0  0  0  0
   13.3138    2.6049   40.9065 C   0  0  0  0  0  0  0  0  0  0  0  0
   12.7558    3.3944   41.9557 O   0  0  0  0  0  0  0  0  0  0  0  0
   12.1921    2.0589   40.0204 C   0  0  0  0  0  0  0  0  0  0  0  0
   12.5677    0.8045   39.4599 O   0  0  0  0  0  0  0  0  0  0  0  0
   11.8583    3.0185   38.8831 C   0  0  0  0  0  0  0  0  0  0  0  0
   13.0581    3.3145   37.9554 C   0  0  0  0  0  0  0  0  0  0  0  0
   12.8840    4.6742   37.5243 O   0  0  0  0  0  0  0  0  0  0  0  0
   12.2786    4.1480   41.5745 H   0  0  0  0  0  0  0  0  0  0  0  0
   13.3501    0.9223   38.8989 H   0  0  0  0  0  0  0  0  0  0  0  0
   12.0162    4.7708   37.1017 H   0  0  0  0  0  0  0  0  0  0  0  0
   12.9760    2.3700   36.7342 C   0  0  0  0  0  0  0  0  0  0  0  0
   13.8650    2.0404   35.9696 O   0  0  0  0  0  0  0  0  0  0  0  0
   11.7190    1.8878   36.5635 O   0  0  0  0  0  0  0  0  0  0  0  0
   11.0357    2.1420   37.1522 H   0  0  0  0  0  0  0  0  0  0  0  0
   15.5657    4.0286   38.0207 C   0  0  0  0  0  0  0  0  0  0  0  0
   19.0383    1.8225   36.6647 C   0  0  0  0  0  0  0  0  0  0  0  0
   18.0883    2.2847   35.7502 C   0  0  0  0  0  0  0  0  0  0  0  0
   16.9612    2.9915   36.1806 C   0  0  0  0  0  0  0  0  0  0  0  0
   16.7729    3.2598   37.5411 C   0  0  0  0  0  0  0  0  0  0  0  0
   17.7289    2.7844   38.4441 C   0  0  0  0  0  0  0  0  0  0  0  0
   17.5831    3.0115   39.7573 F   0  0  0  0  0  0  0  0  0  0  0  0
   18.8526    2.0752   38.0206 C   0  0  0  0  0  0  0  0  0  0  0  0
   21.1371    0.7542   36.9863 C   0  0  0  0  0  0  0  0  0  0  0  0
   20.0897    1.1484   36.1082 O   0  0  0  0  0  0  0  0  0  0  0  0
 26 27  1  0
 27 19  1  0
 19 20  2  0
 20 21  1  0
 21 22  2  0
 22 18  1  0
  1 18  1  0
  1  2  1  0
  2  3  2  0
  2  4  1  0
  4  5  1  0
  4  6  1  0
  6  7  1  0
  6  8  1  0
  8  9  1  0
  9 10  1  0
  9 14  1  0
 14 15  2  0
 14 16  1  0
 22 23  1  0
 23 24  1  0
 23 25  2  0
 25 19  1  0
  9  1  1  0
  5 11  1  0
  7 12  1  0
 10 13  1  0
 16 17  1  0
M  END
> <minimizedAffinity>
-10.04519

> <CNNscore>
0.6147653461

> <CNNaffinity>
5.1835551262

> <CNN_VS>
3.1866700649

> <CNNaffinity_variance>
0.1502537876

$$$$



 27 28  0  0  0  0  0  0  0  0999 V2000
   13.0413    3.6068   38.8387 C   0  0  0  0  0  0  0  0  0  0  0  0
   12.5284    2.7828   37.6700 C   0  0  0  0  0  0  0  0  0  0  0  0
   13.0659    2.7730   36.5585 O   0  0  0  0  0  0  0  0  0  0  0  0
   11.2419    1.9881   37.8853 C   0  0  0  0  0  0  0  0  0  0  0  0
   11.2943    0.8007   37.0961 O   0  0  0  0  0  0  0  0  0  0  0  0
   11.0424    1.6199   39.3571 C   0  0  0  0  0  0  0  0  0  0  0  0
   10.3200    2.6450   40.0323 O   0  0  0  0  0  0  0  0  0  0  0  0
   12.3751    1.4151   40.0697 C   0  0  0  0  0  0  0  0  0  0  0  0
   13.2871    2.6621   40.0397 C   0  0  0  0  0  0  0  0  0  0  0  0
   14.6302    2.1544   39.9824 O   0  0  0  0  0  0  0  0  0  0  0  0
   12.0486    0.2591   37.3765 H   0  0  0  0  0  0  0  0  0  0  0  0
   10.8288    3.4705   40.0055 H   0  0  0  0  0  0  0  0  0  0  0  0
   14.7844    1.5622   40.7351 H   0  0  0  0  0  0  0  0  0  0  0  0
   13.0861    3.4463   41.3568 C   0  0  0  0  0  0  0  0  0  0  0  0
   13.9197    3.7575   42.1886 O   0  0  0  0  0  0  0  0  0  0  0  0
   11.7869    3.7973   41.5318 O   0  0  0  0  0  0  0  0  0  0  0  0
   11.1464    3.5574   40.8913 H   0  0  0  0  0  0  0  0  0  0  0  0
   14.2664    4.4400   38.4017 C   0  0  0  0  0  0  0  0  0  0  0  0
   18.0924    2.4937   38.9830 C   0  0  0  0  0  0  0  0  0  0  0  0
   17.5023    3.2246   40.0175 C   0  0  0  0  0  0  0  0  0  0  0  0
   16.2709    3.8614   39.8356 C   0  0  0  0  0  0  0  0  0  0  0  0
   15.6002    3.7652   38.6111 C   0  0  0  0  0  0  0  0  0  0  0  0
   16.2072    3.0361   37.5838 C   0  0  0  0  0  0  0  0  0  0  0  0
   15.6034    2.9257   36.3920 F   0  0  0  0  0  0  0  0  0  0  0  0
   17.4373    2.4026   37.7586 C   0  0  0  0  0  0  0  0  0  0  0  0
   20.4451    2.4492   38.6479 C   0  0  0  0  0  0  0  0  0  0  0  0
   19.2943    1.9225   39.2973 O   0  0  0  0  0  0  0  0  0  0  0  0
 26 27  1  0
 27 19  1  0
 19 20  2  0
 20 21  1  0
 21 22  2  0
 22 18  1  0
  1 18  1  0
  1  2  1  0
  2  3  2  0
  2  4  1  0
  4  5  1  0
  4  6  1  0
  6  7  1  0
  6  8  1  0
  8  9  1  0
  9 10  1  0
  9 14  1  0
 14 15  2  0
 14 16  1  0
 22 23  1  0
 23 24  1  0
 23 25  2  0
 25 19  1  0
  9  1  1  0
  5 11  1  0
  7 12  1  0
 10 13  1  0
 16 17  1  0
M  END
> <minimizedAffinity>
-9.32000

> <CNNscore>
0.5357261896

> <CNNaffinity>
5.3539862633

> <CNN_VS>
2.8682706356

> <CNNaffinity_variance>
0.5527908206

$$$$



 27 28  0  0  0  0  0  0  0  0999 V2000
   20.7114   -0.9856   40.8265 C   0  0  0  0  0  0  0  0  0  0  0  0
   22.0368   -1.6965   41.0410 C   0  0  0  0  0  0  0  0  0  0  0  0
   23.1305   -1.1271   40.9781 O   0  0  0  0  0  0  0  0  0  0  0  0
   21.9917   -3.2049   41.2766 C   0  0  0  0  0  0  0  0  0  0  0  0
   23.0701   -3.5712   42.1358 O   0  0  0  0  0  0  0  0  0  0  0  0
   20.6647   -3.6421   41.9006 C   0  0  0  0  0  0  0  0  0  0  0  0
   19.7136   -3.9447   40.8845 O   0  0  0  0  0  0  0  0  0  0  0  0
   20.0841   -2.5570   42.8014 C   0  0  0  0  0  0  0  0  0  0  0  0
   19.8158   -1.2248   42.0659 C   0  0  0  0  0  0  0  0  0  0  0  0
   20.0578   -0.1941   43.0376 O   0  0  0  0  0  0  0  0  0  0  0  0
   22.9733   -3.1173   42.9876 H   0  0  0  0  0  0  0  0  0  0  0  0
   19.5390   -3.1492   40.3577 H   0  0  0  0  0  0  0  0  0  0  0  0
   19.4966   -0.3439   43.8144 H   0  0  0  0  0  0  0  0  0  0  0  0
   18.3307   -1.1937   41.6375 C   0  0  0  0  0  0  0  0  0  0  0  0
   17.6436   -2.1075   41.2174 O   0  0  0  0  0  0  0  0  0  0  0  0
   17.7989    0.0466   41.7808 O   0  0  0  0  0  0  0  0  0  0  0  0
   18.3283    0.7489   42.1040 H   0  0  0  0  0  0  0  0  0  0  0  0
   20.9573    0.4982   40.4750 C   0  0  0  0  0  0  0  0  0  0  0  0
   19.2450    1.7808   36.7085 C   0  0  0  0  0  0  0  0  0  0  0  0
   18.7266    2.2459   37.9198 C   0  0  0  0  0  0  0  0  0  0  0  0
   19.2693    1.8313   39.1399 C   0  0  0  0  0  0  0  0  0  0  0  0
   20.3550    0.9487   39.1663 C   0  0  0  0  0  0  0  0  0  0  0  0
   20.8577    0.4870   37.9459 C   0  0  0  0  0  0  0  0  0  0  0  0
   21.8914   -0.3664   37.9255 F   0  0  0  0  0  0  0  0  0  0  0  0
   20.3174    0.8941   36.7263 C   0  0  0  0  0  0  0  0  0  0  0  0
   17.3337    2.8435   35.7771 C   0  0  0  0  0  0  0  0  0  0  0  0
   18.6213    2.2674   35.5932 O   0  0  0  0  0  0  0  0  0  0  0  0
 26 27  1  0
 27 19  1  0
 19 20  2  0
 20 21  1  0
 21 22  2  0
 22 18  1  0
  1 18  1  0
  1  2  1  0
  2  3  2  0
  2  4  1  0
  4  5  1  0
  4  6  1  0
  6  7  1  0
  6  8  1  0
  8  9  1  0
  9 10  1  0
  9 14  1  0
 14 15  2  0
 14 16  1  0
 22 23  1  0
 23 24  1  0
 23 25  2  0
 25 19  1  0
  9  1  1  0
  5 11  1  0
  7 12  1  0
 10 13  1  0
 16 17  1  0
M  END
> <minimizedAffinity>
-5.64255

> <CNNscore>
0.2630130649

> <CNNaffinity>
3.2316830158

> <CNN_VS>
0.8499748707

> <CNNaffinity_variance>
0.8742832541

$$$$



 27 28  0  0  0  0  0  0  0  0999 V2000
   22.7738   11.6607   32.6494 C   0  0  0  0  0  0  0  0  0  0  0  0
   23.6447   10.4172   32.5920 C   0  0  0  0  0  0  0  0  0  0  0  0
   24.3831   10.1490   31.6396 O   0  0  0  0  0  0  0  0  0  0  0  0
   23.5318    9.4297   33.7518 C   0  0  0  0  0  0  0  0  0  0  0  0
   24.7967    8.7996   33.9473 O   0  0  0  0  0  0  0  0  0  0  0  0
   23.0955   10.1214   35.0451 C   0  0  0  0  0  0  0  0  0  0  0  0
   21.6748   10.1378   35.1450 O   0  0  0  0  0  0  0  0  0  0  0  0
   23.6035   11.5578   35.1119 C   0  0  0  0  0  0  0  0  0  0  0  0
   23.1097   12.4403   33.9435 C   0  0  0  0  0  0  0  0  0  0  0  0
   24.1785   13.3645   33.6819 O   0  0  0  0  0  0  0  0  0  0  0  0
   25.4612    9.4704   34.1696 H   0  0  0  0  0  0  0  0  0  0  0  0
   21.3044   10.6442   34.4053 H   0  0  0  0  0  0  0  0  0  0  0  0
   24.3891   13.8532   34.4930 H   0  0  0  0  0  0  0  0  0  0  0  0
   21.8577   13.2164   34.4127 C   0  0  0  0  0  0  0  0  0  0  0  0
   21.3554   14.2122   33.9232 O   0  0  0  0  0  0  0  0  0  0  0  0
   21.3062   12.6486   35.5151 O   0  0  0  0  0  0  0  0  0  0  0  0
   21.6933   11.8825   35.8909 H   0  0  0  0  0  0  0  0  0  0  0  0
   22.9206   12.4707   31.3424 C   0  0  0  0  0  0  0  0  0  0  0  0
   19.2235   13.1113   29.1778 C   0  0  0  0  0  0  0  0  0  0  0  0
   19.8884   14.1819   29.7813 C   0  0  0  0  0  0  0  0  0  0  0  0
   21.0785   13.9822   30.4876 C   0  0  0  0  0  0  0  0  0  0  0  0
   21.6322   12.7012   30.5904 C   0  0  0  0  0  0  0  0  0  0  0  0
   20.9511   11.6394   29.9870 C   0  0  0  0  0  0  0  0  0  0  0  0
   21.4418   10.3945   30.0685 F   0  0  0  0  0  0  0  0  0  0  0  0
   19.7616   11.8323   29.2850 C   0  0  0  0  0  0  0  0  0  0  0  0
   18.1537   14.5295   27.5986 C   0  0  0  0  0  0  0  0  0  0  0  0
   18.0735   13.4481   28.5193 O   0  0  0  0  0  0  0  0  0  0  0  0
 26 27  1  0
 27 19  1  0
 19 20  2  0
 20 21  1  0
 21 22  2  0
 22 18  1  0
  1 18  1  0
  1  2  1  0
  2  3  2  0
  2  4  1  0
  4  5  1  0
  4  6  1  0
  6  7  1  0
  6  8  1  0
  8  9  1  0
  9 10  1  0
  9 14  1  0
 14 15  2  0
 14 16  1  0
 22 23  1  0
 23 24  1  0
 23 25  2  0
 25 19  1  0
  9  1  1  0
  5 11  1  0
  7 12  1  0
 10 13  1  0
 16 17  1  0
M  END
> <minimizedAffinity>
-5.61472

> <CNNscore>
0.2580203116

> <CNNaffinity>
3.5626399517

> <CNN_VS>
0.9192334414

> <CNNaffinity_variance>
0.5444479585

$$$$



 27 28  0  0  0  0  0  0  0  0999 V2000
   20.8385    1.2202   38.7307 C   0  0  0  0  0  0  0  0  0  0  0  0
   20.9953   -0.2857   38.6044 C   0  0  0  0  0  0  0  0  0  0  0  0
   20.7956   -0.9033   37.5542 O   0  0  0  0  0  0  0  0  0  0  0  0
   21.3516   -1.0607   39.8714 C   0  0  0  0  0  0  0  0  0  0  0  0
   22.1427   -2.1929   39.5138 O   0  0  0  0  0  0  0  0  0  0  0  0
   22.1181   -0.1919   40.8710 C   0  0  0  0  0  0  0  0  0  0  0  0
   21.2131    0.4799   41.7418 O   0  0  0  0  0  0  0  0  0  0  0  0
   22.9768    0.8516   40.1643 C   0  0  0  0  0  0  0  0  0  0  0  0
   22.1641    1.8120   39.2670 C   0  0  0  0  0  0  0  0  0  0  0  0
   23.0279    2.1297   38.1633 O   0  0  0  0  0  0  0  0  0  0  0  0
   22.9613   -1.8938   39.0879 H   0  0  0  0  0  0  0  0  0  0  0  0
   20.6420    1.0680   41.2234 H   0  0  0  0  0  0  0  0  0  0  0  0
   23.8587    2.5006   38.4994 H   0  0  0  0  0  0  0  0  0  0  0  0
   21.8618    3.0958   40.0736 C   0  0  0  0  0  0  0  0  0  0  0  0
   21.1408    3.2278   41.0464 O   0  0  0  0  0  0  0  0  0  0  0  0
   22.5259    4.1665   39.5692 O   0  0  0  0  0  0  0  0  0  0  0  0
   23.0803    4.0640   38.8208 H   0  0  0  0  0  0  0  0  0  0  0  0
   20.3520    1.8159   37.3912 C   0  0  0  0  0  0  0  0  0  0  0  0
   16.1409    2.8208   37.2457 C   0  0  0  0  0  0  0  0  0  0  0  0
   16.8266    2.8070   38.4631 C   0  0  0  0  0  0  0  0  0  0  0  0
   18.1842    2.4770   38.5192 C   0  0  0  0  0  0  0  0  0  0  0  0
   18.8844    2.1662   37.3481 C   0  0  0  0  0  0  0  0  0  0  0  0
   18.1822    2.1775   36.1389 C   0  0  0  0  0  0  0  0  0  0  0  0
   18.8123    1.8775   34.9942 F   0  0  0  0  0  0  0  0  0  0  0  0
   16.8272    2.5018   36.0778 C   0  0  0  0  0  0  0  0  0  0  0  0
   14.2137    3.0517   38.6175 C   0  0  0  0  0  0  0  0  0  0  0  0
   14.8198    3.1618   37.3354 O   0  0  0  0  0  0  0  0  0  0  0  0
 26 27  1  0
 27 19  1  0
 19 20  2  0
 20 21  1  0
 21 22  2  0
 22 18  1  0
  1 18  1  0
  1  2  1  0
  2  3  2  0
  2  4  1  0
  4  5  1  0
  4  6  1  0
  6  7  1  0
  6  8  1  0
  8  9  1  0
  9 10  1  0
  9 14  1  0
 14 15  2  0
 14 16  1  0
 22 23  1  0
 23 24  1  0
 23 25  2  0
 25 19  1  0
  9  1  1  0
  5 11  1  0
  7 12  1  0
 10 13  1  0
 16 17  1  0
M  END
> <minimizedAffinity>
-7.35523

> <CNNscore>
0.2531656325

> <CNNaffinity>
3.4745092392

> <CNN_VS>
0.8796263337

> <CNNaffinity_variance>
0.9612792134

$$$$



 27 28  0  0  0  0  0  0  0  0999 V2000
   16.9634    3.0940   41.4000 C   0  0  0  0  0  0  0  0  0  0  0  0
   16.4721    4.2814   42.2105 C   0  0  0  0  0  0  0  0  0  0  0  0
   15.4759    4.9447   41.9073 O   0  0  0  0  0  0  0  0  0  0  0  0
   17.3091    4.6986   43.4181 C   0  0  0  0  0  0  0  0  0  0  0  0
   16.4439    5.2376   44.4163 O   0  0  0  0  0  0  0  0  0  0  0  0
   18.0939    3.5202   43.9986 C   0  0  0  0  0  0  0  0  0  0  0  0
   19.3669    3.4126   43.3689 O   0  0  0  0  0  0  0  0  0  0  0  0
   17.3476    2.2032   43.8129 C   0  0  0  0  0  0  0  0  0  0  0  0
   17.0579    1.8632   42.3336 C   0  0  0  0  0  0  0  0  0  0  0  0
   15.8002    1.1682   42.3385 O   0  0  0  0  0  0  0  0  0  0  0  0
   15.8084    4.5593   44.6938 H   0  0  0  0  0  0  0  0  0  0  0  0
   19.2458    3.2429   42.4216 H   0  0  0  0  0  0  0  0  0  0  0  0
   15.8593    0.3968   42.9236 H   0  0  0  0  0  0  0  0  0  0  0  0
   18.1695    0.9180   41.8229 C   0  0  0  0  0  0  0  0  0  0  0  0
   19.3604    1.1435   41.7026 O   0  0  0  0  0  0  0  0  0  0  0  0
   17.6710   -0.2993   41.4891 O   0  0  0  0  0  0  0  0  0  0  0  0
   16.7547   -0.4719   41.5820 H   0  0  0  0  0  0  0  0  0  0  0  0
   16.0738    2.9003   40.1522 C   0  0  0  0  0  0  0  0  0  0  0  0
   18.2188    2.3570   36.4282 C   0  0  0  0  0  0  0  0  0  0  0  0
   18.8899    2.2866   37.6518 C   0  0  0  0  0  0  0  0  0  0  0  0
   18.2059    2.4677   38.8578 C   0  0  0  0  0  0  0  0  0  0  0  0
   16.8278    2.7108   38.8584 C   0  0  0  0  0  0  0  0  0  0  0  0
   16.1721    2.7853   37.6256 C   0  0  0  0  0  0  0  0  0  0  0  0
   14.8539    3.0251   37.5800 F   0  0  0  0  0  0  0  0  0  0  0  0
   16.8503    2.6097   36.4196 C   0  0  0  0  0  0  0  0  0  0  0  0
   19.9164    1.0664   35.3784 C   0  0  0  0  0  0  0  0  0  0  0  0
   19.0078    2.1598   35.3290 O   0  0  0  0  0  0  0  0  0  0  0  0
 26 27  1  0
 27 19  1  0
 19 20  2  0
 20 21  1  0
 21 22  2  0
 22 18  1  0
  1 18  1  0
  1  2  1  0
  2  3  2  0
  2  4  1  0
  4  5  1  0
  4  6  1  0
  6  7  1  0
  6  8  1  0
  8  9  1  0
  9 10  1  0
  9 14  1  0
 14 15  2  0
 14 16  1  0
 22 23  1  0
 23 24  1  0
 23 25  2  0
 25 19  1  0
  9  1  1  0
  5 11  1  0
  7 12  1  0
 10 13  1  0
 16 17  1  0
M  END
> <minimizedAffinity>
-6.88151

> <CNNscore>
0.2461132109

> <CNNaffinity>
3.3787307739

> <CNN_VS>
0.8315503001

> <CNNaffinity_variance>
1.3329859972

$$$$



 27 28  0  0  0  0  0  0  0  0999 V2000
   13.9980    3.0086   39.7326 C   0  0  0  0  0  0  0  0  0  0  0  0
   13.9576    2.9288   38.2160 C   0  0  0  0  0  0  0  0  0  0  0  0
   14.9084    2.5399   37.5311 O   0  0  0  0  0  0  0  0  0  0  0  0
   12.6903    3.4252   37.5227 C   0  0  0  0  0  0  0  0  0  0  0  0
   12.4866    2.6654   36.3325 O   0  0  0  0  0  0  0  0  0  0  0  0
   11.4631    3.3025   38.4285 C   0  0  0  0  0  0  0  0  0  0  0  0
   11.2973    4.4858   39.2036 O   0  0  0  0  0  0  0  0  0  0  0  0
   11.5823    2.1138   39.3765 C   0  0  0  0  0  0  0  0  0  0  0  0
   12.8171    2.1866   40.3026 C   0  0  0  0  0  0  0  0  0  0  0  0
   13.2317    0.8246   40.4975 O   0  0  0  0  0  0  0  0  0  0  0  0
   12.3732    1.7297   36.5617 H   0  0  0  0  0  0  0  0  0  0  0  0
   12.0705    4.6081   39.7765 H   0  0  0  0  0  0  0  0  0  0  0  0
   12.4917    0.3092   40.8548 H   0  0  0  0  0  0  0  0  0  0  0  0
   12.3780    2.7924   41.6555 C   0  0  0  0  0  0  0  0  0  0  0  0
   12.8086    3.7834   42.2178 O   0  0  0  0  0  0  0  0  0  0  0  0
   11.3794    2.0690   42.2223 O   0  0  0  0  0  0  0  0  0  0  0  0
   11.0489    1.3068   41.7890 H   0  0  0  0  0  0  0  0  0  0  0  0
   15.3931    2.5913   40.2477 C   0  0  0  0  0  0  0  0  0  0  0  0
   16.7165    4.6506   43.8215 C   0  0  0  0  0  0  0  0  0  0  0  0
   16.3283    5.3708   42.6888 C   0  0  0  0  0  0  0  0  0  0  0  0
   15.9065    4.7134   41.5291 C   0  0  0  0  0  0  0  0  0  0  0  0
   15.8540    3.3155   41.4893 C   0  0  0  0  0  0  0  0  0  0  0  0
   16.2524    2.6092   42.6285 C   0  0  0  0  0  0  0  0  0  0  0  0
   16.2259    1.2689   42.6305 F   0  0  0  0  0  0  0  0  0  0  0  0
   16.6780    3.2599   43.7863 C   0  0  0  0  0  0  0  0  0  0  0  0
   16.0729    5.9176   45.7268 C   0  0  0  0  0  0  0  0  0  0  0  0
   17.1046    5.4185   44.8843 O   0  0  0  0  0  0  0  0  0  0  0  0
 26 27  1  0
 27 19  1  0
 19 20  2  0
 20 21  1  0
 21 22  2  0
 22 18  1  0
  1 18  1  0
  1  2  1  0
  2  3  2  0
  2  4  1  0
  4  5  1  0
  4  6  1  0
  6  7  1  0
  6  8  1  0
  8  9  1  0
  9 10  1  0
  9 14  1  0
 14 15  2  0
 14 16  1  0
 22 23  1  0
 23 24  1  0
 23 25  2  0
 25 19  1  0
  9  1  1  0
  5 11  1  0
  7 12  1  0
 10 13  1  0
 16 17  1  0
M  END
> <minimizedAffinity>
-7.08711

> <CNNscore>
0.2358257771

> <CNNaffinity>
4.1811504364

> <CNN_VS>
0.9860230684

> <CNNaffinity_variance>
0.8869237900

$$$$
