


 24 27  0  0  0  0  0  0  0  0999 V2000
    3.8562   65.7818   63.2372 C   0  0  0  0  0  0  0  0  0  0  0  0
    4.6082   66.3966   62.3039 C   0  0  0  0  0  0  0  0  0  0  0  0
    4.3484   67.8106   61.8314 C   0  0  0  0  0  0  0  0  0  0  0  0
    5.2743   68.8050   62.5435 C   0  0  0  0  0  0  0  0  0  0  0  0
    4.8595   69.1177   63.9650 C   0  0  0  0  0  0  0  0  0  0  0  0
    5.7940   69.7691   64.6952 N   0  0  0  0  0  0  0  0  0  0  0  0
    5.5362   70.0511   65.9742 C   0  0  0  0  0  0  0  0  0  0  0  0
    6.5443   70.6578   66.7079 C   0  0  0  0  0  0  0  0  0  0  0  0
    6.3882   70.9656   68.0598 C   0  0  0  0  0  0  0  0  0  0  0  0
    7.7144   71.7192   68.8700 Cl  0  0  0  0  0  0  0  0  0  0  0  0
    5.1925   70.6541   68.6990 C   0  0  0  0  0  0  0  0  0  0  0  0
    4.8800   71.0145   70.5364 Br  0  0  0  0  0  0  0  0  0  0  0  0
    4.1634   70.0489   67.9721 C   0  0  0  0  0  0  0  0  0  0  0  0
    4.3072   69.7477   66.5939 C   0  0  0  0  0  0  0  0  0  0  0  0
    3.2899   69.1570   65.7897 C   0  0  0  0  0  0  0  0  0  0  0  0
    2.0653   68.7572   66.3782 N   0  0  0  0  0  0  0  0  0  0  0  0
    3.5922   68.7844   64.4632 C   0  0  0  0  0  0  0  0  0  0  0  0
    2.6149   68.0034   63.5882 C   0  0  0  0  0  0  0  0  0  0  0  0
    2.6858   66.4883   63.8970 C   0  0  0  0  0  0  0  0  0  0  0  0
    2.9013   68.2250   62.0982 C   0  0  0  0  0  0  0  0  0  0  0  0
    1.8557   69.0181   67.3041 H   0  0  0  0  0  0  0  0  0  0  0  0
    1.4235   68.2184   65.8613 H   0  0  0  0  0  0  0  0  0  0  0  0
    3.7377   64.1054   65.1159 C   0  0  0  0  0  0  0  0  0  0  0  0
    4.1273   64.3607   63.6668 C   0  0  0  0  0  0  0  0  0  0  0  0
 23 24  1  0
 24  1  1  0
  1  2  2  0
  2  3  1  0
  3  4  1  0
  4  5  1  0
  5  6  2  0
  6  7  1  0
  7  8  2  0
  8  9  1  0
  9 10  1  0
  9 11  2  0
 11 12  1  0
 11 13  1  0
 13 14  2  0
 14 15  1  0
 15 16  1  0
 15 17  2  0
 17 18  1  0
 18 19  1  0
 18 20  1  0
 19  1  1  0
 20  3  1  0
 17  5  1  0
 14  7  1  0
 16 21  1  0
 16 22  1  0
M  END
> <minimizedAffinity>
-8.58229

> <CNNscore>
0.9065338969

> <CNNaffinity>
8.1057376862

> <CNN_VS>
7.3481259346

> <CNNaffinity_variance>
0.4865764380

$$$$



 24 27  0  0  0  0  0  0  0  0999 V2000
    6.5326   70.5217   69.7238 C   0  0  0  0  0  0  0  0  0  0  0  0
    5.3371   70.7957   70.2807 C   0  0  0  0  0  0  0  0  0  0  0  0
    4.2669   71.6087   69.5852 C   0  0  0  0  0  0  0  0  0  0  0  0
    3.2183   70.6948   68.9384 C   0  0  0  0  0  0  0  0  0  0  0  0
    3.6799   70.0500   67.6494 C   0  0  0  0  0  0  0  0  0  0  0  0
    2.8907   69.0434   67.2078 N   0  0  0  0  0  0  0  0  0  0  0  0
    3.2395   68.3847   66.1004 C   0  0  0  0  0  0  0  0  0  0  0  0
    2.4431   67.3160   65.7180 C   0  0  0  0  0  0  0  0  0  0  0  0
    2.7379   66.5426   64.5947 C   0  0  0  0  0  0  0  0  0  0  0  0
    1.6736   65.2354   64.2181 Cl  0  0  0  0  0  0  0  0  0  0  0  0
    3.8633   66.8421   63.8338 C   0  0  0  0  0  0  0  0  0  0  0  0
    4.3651   65.8467   62.2972 Br  0  0  0  0  0  0  0  0  0  0  0  0
    4.6728   67.9207   64.2013 C   0  0  0  0  0  0  0  0  0  0  0  0
    4.3716   68.7222   65.3316 C   0  0  0  0  0  0  0  0  0  0  0  0
    5.1383   69.8500   65.7448 C   0  0  0  0  0  0  0  0  0  0  0  0
    6.3305   70.1856   65.0577 N   0  0  0  0  0  0  0  0  0  0  0  0
    4.8171   70.4921   66.9590 C   0  0  0  0  0  0  0  0  0  0  0  0
    5.6814   71.6011   67.5536 C   0  0  0  0  0  0  0  0  0  0  0  0
    6.8830   71.0093   68.3297 C   0  0  0  0  0  0  0  0  0  0  0  0
    4.8684   72.4968   68.4959 C   0  0  0  0  0  0  0  0  0  0  0  0
    6.5534   69.7366   64.2104 H   0  0  0  0  0  0  0  0  0  0  0  0
    6.9364   70.8678   65.4275 H   0  0  0  0  0  0  0  0  0  0  0  0
    7.5496   69.9589   71.9605 C   0  0  0  0  0  0  0  0  0  0  0  0
    7.5878   69.7294   70.4562 C   0  0  0  0  0  0  0  0  0  0  0  0
 23 24  1  0
 24  1  1  0
  1  2  2  0
  2  3  1  0
  3  4  1  0
  4  5  1  0
  5  6  2  0
  6  7  1  0
  7  8  2  0
  8  9  1  0
  9 10  1  0
  9 11  2  0
 11 12  1  0
 11 13  1  0
 13 14  2  0
 14 15  1  0
 15 16  1  0
 15 17  2  0
 17 18  1  0
 18 19  1  0
 18 20  1  0
 19  1  1  0
 20  3  1  0
 17  5  1  0
 14  7  1  0
 16 21  1  0
 16 22  1  0
M  END
> <minimizedAffinity>
-0.40922

> <CNNscore>
0.7322127819

> <CNNaffinity>
7.7670211792

> <CNN_VS>
5.6871123314

> <CNNaffinity_variance>
0.8872402310

$$$$



 24 27  0  0  0  0  0  0  0  0999 V2000
    2.9777   65.8527   64.3306 C   0  0  0  0  0  0  0  0  0  0  0  0
    1.7158   66.2702   64.5485 C   0  0  0  0  0  0  0  0  0  0  0  0
    1.3495   67.7233   64.7597 C   0  0  0  0  0  0  0  0  0  0  0  0
    0.8233   68.3498   63.4622 C   0  0  0  0  0  0  0  0  0  0  0  0
    1.9072   68.6848   62.4606 C   0  0  0  0  0  0  0  0  0  0  0  0
    1.4568   68.9811   61.2195 N   0  0  0  0  0  0  0  0  0  0  0  0
    2.3410   69.2486   60.2560 C   0  0  0  0  0  0  0  0  0  0  0  0
    1.8440   69.4800   58.9824 C   0  0  0  0  0  0  0  0  0  0  0  0
    2.6850   69.7372   57.8991 C   0  0  0  0  0  0  0  0  0  0  0  0
    1.9507   70.0087   56.3595 Cl  0  0  0  0  0  0  0  0  0  0  0  0
    4.0625   69.7592   58.0922 C   0  0  0  0  0  0  0  0  0  0  0  0
    5.2966   70.0835   56.6867 Br  0  0  0  0  0  0  0  0  0  0  0  0
    4.5796   69.5350   59.3712 C   0  0  0  0  0  0  0  0  0  0  0  0
    3.7318   69.2894   60.4810 C   0  0  0  0  0  0  0  0  0  0  0  0
    4.1918   69.0802   61.8134 C   0  0  0  0  0  0  0  0  0  0  0  0
    5.5814   69.0298   62.0828 N   0  0  0  0  0  0  0  0  0  0  0  0
    3.2641   68.7160   62.8116 C   0  0  0  0  0  0  0  0  0  0  0  0
    3.6917   68.3180   64.2220 C   0  0  0  0  0  0  0  0  0  0  0  0
    4.1332   66.8351   64.2680 C   0  0  0  0  0  0  0  0  0  0  0  0
    2.5568   68.5344   65.2304 C   0  0  0  0  0  0  0  0  0  0  0  0
    6.2276   69.2843   61.3850 H   0  0  0  0  0  0  0  0  0  0  0  0
    5.9010   68.7402   62.9678 H   0  0  0  0  0  0  0  0  0  0  0  0
    4.5764   63.9869   64.8936 C   0  0  0  0  0  0  0  0  0  0  0  0
    3.3116   64.3920   64.1498 C   0  0  0  0  0  0  0  0  0  0  0  0
 23 24  1  0
 24  1  1  0
  1  2  2  0
  2  3  1  0
  3  4  1  0
  4  5  1  0
  5  6  2  0
  6  7  1  0
  7  8  2  0
  8  9  1  0
  9 10  1  0
  9 11  2  0
 11 12  1  0
 11 13  1  0
 13 14  2  0
 14 15  1  0
 15 16  1  0
 15 17  2  0
 17 18  1  0
 18 19  1  0
 18 20  1  0
 19  1  1  0
 20  3  1  0
 17  5  1  0
 14  7  1  0
 16 21  1  0
 16 22  1  0
M  END
> <minimizedAffinity>
19.48186

> <CNNscore>
0.5781936646

> <CNNaffinity>
6.6297726631

> <CNN_VS>
3.8332924843

> <CNNaffinity_variance>
0.8229876161

$$$$



 24 27  0  0  0  0  0  0  0  0999 V2000
   12.3238   75.7620   70.0333 C   0  0  0  0  0  0  0  0  0  0  0  0
   12.9183   74.5824   69.7694 C   0  0  0  0  0  0  0  0  0  0  0  0
   12.3991   73.6068   68.7356 C   0  0  0  0  0  0  0  0  0  0  0  0
   13.1694   73.7451   67.4163 C   0  0  0  0  0  0  0  0  0  0  0  0
   12.7678   74.9522   66.5966 C   0  0  0  0  0  0  0  0  0  0  0  0
   13.6065   75.2457   65.5760 N   0  0  0  0  0  0  0  0  0  0  0  0
   13.3586   76.3188   64.8218 C   0  0  0  0  0  0  0  0  0  0  0  0
   14.2775   76.6256   63.8297 C   0  0  0  0  0  0  0  0  0  0  0  0
   14.1284   77.7430   63.0077 C   0  0  0  0  0  0  0  0  0  0  0  0
   15.3383   78.0242   61.8076 Cl  0  0  0  0  0  0  0  0  0  0  0  0
   13.0324   78.5814   63.1846 C   0  0  0  0  0  0  0  0  0  0  0  0
   12.7410   80.1350   62.1333 Br  0  0  0  0  0  0  0  0  0  0  0  0
   12.0929   78.2826   64.1754 C   0  0  0  0  0  0  0  0  0  0  0  0
   12.2277   77.1400   65.0043 C   0  0  0  0  0  0  0  0  0  0  0  0
   11.2940   76.7638   66.0129 C   0  0  0  0  0  0  0  0  0  0  0  0
   10.1826   77.5954   66.2943 N   0  0  0  0  0  0  0  0  0  0  0  0
   11.5992   75.6796   66.8621 C   0  0  0  0  0  0  0  0  0  0  0  0
   10.7346   75.3124   68.0656 C   0  0  0  0  0  0  0  0  0  0  0  0
   11.0784   76.2017   69.2850 C   0  0  0  0  0  0  0  0  0  0  0  0
   10.9149   73.8397   68.4527 C   0  0  0  0  0  0  0  0  0  0  0  0
    9.9709   78.3517   65.7007 H   0  0  0  0  0  0  0  0  0  0  0  0
    9.6218   77.4172   67.0836 H   0  0  0  0  0  0  0  0  0  0  0  0
   12.4609   78.1484   70.8333 C   0  0  0  0  0  0  0  0  0  0  0  0
   12.8535   76.7003   71.0899 C   0  0  0  0  0  0  0  0  0  0  0  0
 23 24  1  0
 24  1  1  0
  1  2  2  0
  2  3  1  0
  3  4  1  0
  4  5  1  0
  5  6  2  0
  6  7  1  0
  7  8  2  0
  8  9  1  0
  9 10  1  0
  9 11  2  0
 11 12  1  0
 11 13  1  0
 13 14  2  0
 14 15  1  0
 15 16  1  0
 15 17  2  0
 17 18  1  0
 18 19  1  0
 18 20  1  0
 19  1  1  0
 20  3  1  0
 17  5  1  0
 14  7  1  0
 16 21  1  0
 16 22  1  0
M  END
> <minimizedAffinity>
94.70135

> <CNNscore>
0.5540208817

> <CNNaffinity>
5.9148688316

> <CNN_VS>
3.2769608498

> <CNNaffinity_variance>
0.9698603749

$$$$



 24 27  0  0  0  0  0  0  0  0999 V2000
    3.3418   65.3310   65.2440 C   0  0  0  0  0  0  0  0  0  0  0  0
    2.2859   65.8182   65.9237 C   0  0  0  0  0  0  0  0  0  0  0  0
    2.1343   67.2812   66.2799 C   0  0  0  0  0  0  0  0  0  0  0  0
    1.2130   67.9952   65.2827 C   0  0  0  0  0  0  0  0  0  0  0  0
    1.8700   68.3034   63.9546 C   0  0  0  0  0  0  0  0  0  0  0  0
    1.0149   68.6808   62.9761 N   0  0  0  0  0  0  0  0  0  0  0  0
    1.4962   68.9327   61.7568 C   0  0  0  0  0  0  0  0  0  0  0  0
    0.5811   69.2500   60.7644 C   0  0  0  0  0  0  0  0  0  0  0  0
    0.9770   69.4995   59.4500 C   0  0  0  0  0  0  0  0  0  0  0  0
   -0.2533   69.8832   58.3000 Cl  0  0  0  0  0  0  0  0  0  0  0  0
    2.3253   69.4254   59.1156 C   0  0  0  0  0  0  0  0  0  0  0  0
    2.9707   69.7307   57.3566 Br  0  0  0  0  0  0  0  0  0  0  0  0
    3.2616   69.1140   60.1055 C   0  0  0  0  0  0  0  0  0  0  0  0
    2.8700   68.8752   61.4473 C   0  0  0  0  0  0  0  0  0  0  0  0
    3.7743   68.5801   62.5083 C   0  0  0  0  0  0  0  0  0  0  0  0
    5.1566   68.4297   62.2390 N   0  0  0  0  0  0  0  0  0  0  0  0
    3.2585   68.2330   63.7745 C   0  0  0  0  0  0  0  0  0  0  0  0
    4.1475   67.7483   64.9170 C   0  0  0  0  0  0  0  0  0  0  0  0
    4.4619   66.2397   64.7709 C   0  0  0  0  0  0  0  0  0  0  0  0
    3.4873   67.9929   66.2792 C   0  0  0  0  0  0  0  0  0  0  0  0
    5.5151   68.6724   61.3548 H   0  0  0  0  0  0  0  0  0  0  0  0
    5.7590   68.0826   62.9361 H   0  0  0  0  0  0  0  0  0  0  0  0
    4.6743   63.5615   64.0410 C   0  0  0  0  0  0  0  0  0  0  0  0
    3.4741   63.8612   64.9280 C   0  0  0  0  0  0  0  0  0  0  0  0
 23 24  1  0
 24  1  1  0
  1  2  2  0
  2  3  1  0
  3  4  1  0
  4  5  1  0
  5  6  2  0
  6  7  1  0
  7  8  2  0
  8  9  1  0
  9 10  1  0
  9 11  2  0
 11 12  1  0
 11 13  1  0
 13 14  2  0
 14 15  1  0
 15 16  1  0
 15 17  2  0
 17 18  1  0
 18 19  1  0
 18 20  1  0
 19  1  1  0
 20  3  1  0
 17  5  1  0
 14  7  1  0
 16 21  1  0
 16 22  1  0
M  END
> <minimizedAffinity>
9.63485

> <CNNscore>
0.5469948649

> <CNNaffinity>
6.6970210075

> <CNN_VS>
3.6632361412

> <CNNaffinity_variance>
0.5996882915

$$$$



 24 27  0  0  0  0  0  0  0  0999 V2000
    5.3913   72.5011   68.4068 C   0  0  0  0  0  0  0  0  0  0  0  0
    6.6159   72.0185   68.1205 C   0  0  0  0  0  0  0  0  0  0  0  0
    6.9567   70.5449   68.1681 C   0  0  0  0  0  0  0  0  0  0  0  0
    6.9099   69.9261   66.7653 C   0  0  0  0  0  0  0  0  0  0  0  0
    5.5081   69.6681   66.2564 C   0  0  0  0  0  0  0  0  0  0  0  0
    5.4308   69.3813   64.9362 N   0  0  0  0  0  0  0  0  0  0  0  0
    4.2314   69.1802   64.3861 C   0  0  0  0  0  0  0  0  0  0  0  0
    4.1879   68.9567   63.0183 C   0  0  0  0  0  0  0  0  0  0  0  0
    2.9830   68.7668   62.3409 C   0  0  0  0  0  0  0  0  0  0  0  0
    3.0539   68.4986   60.6361 Cl  0  0  0  0  0  0  0  0  0  0  0  0
    1.7863   68.8058   63.0491 C   0  0  0  0  0  0  0  0  0  0  0  0
    0.0915   68.5756   62.2254 Br  0  0  0  0  0  0  0  0  0  0  0  0
    1.8128   69.0229   64.4296 C   0  0  0  0  0  0  0  0  0  0  0  0
    3.0337   69.2003   65.1288 C   0  0  0  0  0  0  0  0  0  0  0  0
    3.1325   69.3983   66.5365 C   0  0  0  0  0  0  0  0  0  0  0  0
    1.9579   69.5083   67.3201 N   0  0  0  0  0  0  0  0  0  0  0  0
    4.3906   69.6931   67.1024 C   0  0  0  0  0  0  0  0  0  0  0  0
    4.5595   70.0761   68.5705 C   0  0  0  0  0  0  0  0  0  0  0  0
    4.2496   71.5768   68.7894 C   0  0  0  0  0  0  0  0  0  0  0  0
    5.9812   69.7810   69.0635 C   0  0  0  0  0  0  0  0  0  0  0  0
    1.0806   69.3022   66.9237 H   0  0  0  0  0  0  0  0  0  0  0  0
    2.0187   69.7909   68.2612 H   0  0  0  0  0  0  0  0  0  0  0  0
    4.8888   74.5031   66.9599 C   0  0  0  0  0  0  0  0  0  0  0  0
    5.0923   73.9800   68.3748 C   0  0  0  0  0  0  0  0  0  0  0  0
 23 24  1  0
 24  1  1  0
  1  2  2  0
  2  3  1  0
  3  4  1  0
  4  5  1  0
  5  6  2  0
  6  7  1  0
  7  8  2  0
  8  9  1  0
  9 10  1  0
  9 11  2  0
 11 12  1  0
 11 13  1  0
 13 14  2  0
 14 15  1  0
 15 16  1  0
 15 17  2  0
 17 18  1  0
 18 19  1  0
 18 20  1  0
 19  1  1  0
 20  3  1  0
 17  5  1  0
 14  7  1  0
 16 21  1  0
 16 22  1  0
M  END
> <minimizedAffinity>
11.43046

> <CNNscore>
0.5419877768

> <CNNaffinity>
7.2520694733

> <CNN_VS>
3.9305329323

> <CNNaffinity_variance>
1.2964640856

$$$$



 24 27  0  0  0  0  0  0  0  0999 V2000
    2.8864   58.4951   74.8282 C   0  0  0  0  0  0  0  0  0  0  0  0
    3.0537   59.3022   73.7628 C   0  0  0  0  0  0  0  0  0  0  0  0
    2.3314   59.0986   72.4487 C   0  0  0  0  0  0  0  0  0  0  0  0
    1.1068   60.0170   72.3486 C   0  0  0  0  0  0  0  0  0  0  0  0
   -0.0782   59.5484   73.1651 C   0  0  0  0  0  0  0  0  0  0  0  0
   -1.0620   60.4661   73.3100 N   0  0  0  0  0  0  0  0  0  0  0  0
   -2.1299   60.1597   74.0498 C   0  0  0  0  0  0  0  0  0  0  0  0
   -3.0839   61.1496   74.2311 C   0  0  0  0  0  0  0  0  0  0  0  0
   -4.2212   60.9424   75.0123 C   0  0  0  0  0  0  0  0  0  0  0  0
   -5.3387   62.2503   75.1665 Cl  0  0  0  0  0  0  0  0  0  0  0  0
   -4.4091   59.7125   75.6346 C   0  0  0  0  0  0  0  0  0  0  0  0
   -5.9109   59.3291   76.7306 Br  0  0  0  0  0  0  0  0  0  0  0  0
   -3.4607   58.7014   75.4564 C   0  0  0  0  0  0  0  0  0  0  0  0
   -2.3103   58.8977   74.6508 C   0  0  0  0  0  0  0  0  0  0  0  0
   -1.3206   57.9021   74.4064 C   0  0  0  0  0  0  0  0  0  0  0  0
   -1.4087   56.6433   75.0495 N   0  0  0  0  0  0  0  0  0  0  0  0
   -0.1541   58.2527   73.6948 C   0  0  0  0  0  0  0  0  0  0  0  0
    1.0234   57.2954   73.5284 C   0  0  0  0  0  0  0  0  0  0  0  0
    1.9328   57.3150   74.7809 C   0  0  0  0  0  0  0  0  0  0  0  0
    1.8616   57.6520   72.2949 C   0  0  0  0  0  0  0  0  0  0  0  0
   -2.2235   56.4001   75.5458 H   0  0  0  0  0  0  0  0  0  0  0  0
   -0.6553   56.0116   75.0004 H   0  0  0  0  0  0  0  0  0  0  0  0
    3.0073   59.7821   76.9923 C   0  0  0  0  0  0  0  0  0  0  0  0
    3.6427   58.7117   76.1161 C   0  0  0  0  0  0  0  0  0  0  0  0
 23 24  1  0
 24  1  1  0
  1  2  2  0
  2  3  1  0
  3  4  1  0
  4  5  1  0
  5  6  2  0
  6  7  1  0
  7  8  2  0
  8  9  1  0
  9 10  1  0
  9 11  2  0
 11 12  1  0
 11 13  1  0
 13 14  2  0
 14 15  1  0
 15 16  1  0
 15 17  2  0
 17 18  1  0
 18 19  1  0
 18 20  1  0
 19  1  1  0
 20  3  1  0
 17  5  1  0
 14  7  1  0
 16 21  1  0
 16 22  1  0
M  END
> <minimizedAffinity>
-6.03202

> <CNNscore>
0.5092027187

> <CNNaffinity>
5.8949379921

> <CNN_VS>
3.0017185211

> <CNNaffinity_variance>
0.1451230347

$$$$



 24 27  0  0  0  0  0  0  0  0999 V2000
    3.6823   69.6569   66.5563 C   0  0  0  0  0  0  0  0  0  0  0  0
    2.5753   69.1665   67.1465 C   0  0  0  0  0  0  0  0  0  0  0  0
    1.3947   68.6242   66.3705 C   0  0  0  0  0  0  0  0  0  0  0  0
    1.4488   67.0934   66.2895 C   0  0  0  0  0  0  0  0  0  0  0  0
    2.4527   66.5686   65.2858 C   0  0  0  0  0  0  0  0  0  0  0  0
    2.7122   65.2443   65.3868 N   0  0  0  0  0  0  0  0  0  0  0  0
    3.6167   64.6974   64.5716 C   0  0  0  0  0  0  0  0  0  0  0  0
    3.9049   63.3530   64.7513 C   0  0  0  0  0  0  0  0  0  0  0  0
    4.8572   62.6935   63.9735 C   0  0  0  0  0  0  0  0  0  0  0  0
    5.1320   61.0180   64.2903 Cl  0  0  0  0  0  0  0  0  0  0  0  0
    5.5452   63.3981   62.9909 C   0  0  0  0  0  0  0  0  0  0  0  0
    6.8702   62.6036   61.8878 Br  0  0  0  0  0  0  0  0  0  0  0  0
    5.2615   64.7521   62.7918 C   0  0  0  0  0  0  0  0  0  0  0  0
    4.2836   65.4263   63.5664 C   0  0  0  0  0  0  0  0  0  0  0  0
    3.9277   66.7957   63.3971 C   0  0  0  0  0  0  0  0  0  0  0  0
    4.6221   67.5966   62.4578 N   0  0  0  0  0  0  0  0  0  0  0  0
    3.0346   67.3919   64.3118 C   0  0  0  0  0  0  0  0  0  0  0  0
    2.7258   68.8869   64.2999 C   0  0  0  0  0  0  0  0  0  0  0  0
    3.8236   69.6840   65.0452 C   0  0  0  0  0  0  0  0  0  0  0  0
    1.3669   69.1805   64.9469 C   0  0  0  0  0  0  0  0  0  0  0  0
    5.2451   67.1790   61.8200 H   0  0  0  0  0  0  0  0  0  0  0  0
    4.4818   68.5709   62.4426 H   0  0  0  0  0  0  0  0  0  0  0  0
    6.1634   70.0957   66.6334 C   0  0  0  0  0  0  0  0  0  0  0  0
    4.8313   70.2143   67.3605 C   0  0  0  0  0  0  0  0  0  0  0  0
 23 24  1  0
 24  1  1  0
  1  2  2  0
  2  3  1  0
  3  4  1  0
  4  5  1  0
  5  6  2  0
  6  7  1  0
  7  8  2  0
  8  9  1  0
  9 10  1  0
  9 11  2  0
 11 12  1  0
 11 13  1  0
 13 14  2  0
 14 15  1  0
 15 16  1  0
 15 17  2  0
 17 18  1  0
 18 19  1  0
 18 20  1  0
 19  1  1  0
 20  3  1  0
 17  5  1  0
 14  7  1  0
 16 21  1  0
 16 22  1  0
M  END
> <minimizedAffinity>
1.30733

> <CNNscore>
0.4716697931

> <CNNaffinity>
6.9912934303

> <CNN_VS>
3.2975819111

> <CNNaffinity_variance>
0.4465829134

$$$$



 24 27  0  0  0  0  0  0  0  0999 V2000
    6.0545   79.9299   65.4506 C   0  0  0  0  0  0  0  0  0  0  0  0
    7.3875   79.8000   65.3070 C   0  0  0  0  0  0  0  0  0  0  0  0
    8.1467   78.5562   65.7154 C   0  0  0  0  0  0  0  0  0  0  0  0
    8.4104   77.6528   64.5040 C   0  0  0  0  0  0  0  0  0  0  0  0
    7.1999   76.8640   64.0536 C   0  0  0  0  0  0  0  0  0  0  0  0
    7.3283   76.2763   62.8414 N   0  0  0  0  0  0  0  0  0  0  0  0
    6.2968   75.5935   62.3399 C   0  0  0  0  0  0  0  0  0  0  0  0
    6.4428   75.0641   61.0666 C   0  0  0  0  0  0  0  0  0  0  0  0
    5.4139   74.3611   60.4389 C   0  0  0  0  0  0  0  0  0  0  0  0
    5.7116   73.7495   58.8512 Cl  0  0  0  0  0  0  0  0  0  0  0  0
    4.2024   74.1857   61.0998 C   0  0  0  0  0  0  0  0  0  0  0  0
    2.7330   73.2602   60.3331 Br  0  0  0  0  0  0  0  0  0  0  0  0
    4.0412   74.7068   62.3867 C   0  0  0  0  0  0  0  0  0  0  0  0
    5.0870   75.4082   63.0388 C   0  0  0  0  0  0  0  0  0  0  0  0
    4.9978   75.9404   64.3576 C   0  0  0  0  0  0  0  0  0  0  0  0
    3.7795   75.8545   65.0747 N   0  0  0  0  0  0  0  0  0  0  0  0
    6.0557   76.7314   64.8526 C   0  0  0  0  0  0  0  0  0  0  0  0
    5.9726   77.4699   66.1861 C   0  0  0  0  0  0  0  0  0  0  0  0
    5.2113   78.8086   66.0301 C   0  0  0  0  0  0  0  0  0  0  0  0
    7.3683   77.7506   66.7557 C   0  0  0  0  0  0  0  0  0  0  0  0
    3.0421   75.3020   64.7280 H   0  0  0  0  0  0  0  0  0  0  0  0
    3.6700   76.3474   65.9199 H   0  0  0  0  0  0  0  0  0  0  0  0
    3.9973   80.9175   64.3799 C   0  0  0  0  0  0  0  0  0  0  0  0
    5.3322   81.1951   65.0567 C   0  0  0  0  0  0  0  0  0  0  0  0
 23 24  1  0
 24  1  1  0
  1  2  2  0
  2  3  1  0
  3  4  1  0
  4  5  1  0
  5  6  2  0
  6  7  1  0
  7  8  2  0
  8  9  1  0
  9 10  1  0
  9 11  2  0
 11 12  1  0
 11 13  1  0
 13 14  2  0
 14 15  1  0
 15 16  1  0
 15 17  2  0
 17 18  1  0
 18 19  1  0
 18 20  1  0
 19  1  1  0
 20  3  1  0
 17  5  1  0
 14  7  1  0
 16 21  1  0
 16 22  1  0
M  END
> <minimizedAffinity>
81.23368

> <CNNscore>
0.4480891228

> <CNNaffinity>
5.8835968971

> <CNN_VS>
2.6363756657

> <CNNaffinity_variance>
1.5786929131

$$$$
