


 26 29  0  0  0  0  0  0  0  0999 V2000
   -2.3258    3.4569   24.3618 C   0  0  0  0  0  0  0  0  0  0  0  0
   -2.4485    2.0727   24.2954 C   0  0  0  0  0  0  0  0  0  0  0  0
   -2.7409    1.4161   23.0845 C   0  0  0  0  0  0  0  0  0  0  0  0
   -2.9009    2.2148   21.9460 C   0  0  0  0  0  0  0  0  0  0  0  0
   -2.8014    3.5610   22.0334 N   0  0  0  0  0  0  0  0  0  0  0  0
   -2.5219    4.1730   23.2386 N   0  0  0  0  0  0  0  0  0  0  0  0
   -3.1944    1.7194   20.5887 C   0  0  0  0  0  0  0  0  0  0  0  0
   -2.1618    1.5808   19.6476 C   0  0  0  0  0  0  0  0  0  0  0  0
   -2.4173    1.1228   18.3517 C   0  0  0  0  0  0  0  0  0  0  0  0
   -3.7180    0.7830   17.9578 C   0  0  0  0  0  0  0  0  0  0  0  0
   -3.9926    0.3265   16.6587 C   0  0  0  0  0  0  0  0  0  0  0  0
   -5.2958   -0.0072   16.2918 C   0  0  0  0  0  0  0  0  0  0  0  0
   -5.6487   -0.6187   14.5378 Br  0  0  0  0  0  0  0  0  0  0  0  0
   -6.3391    0.1062   17.2051 C   0  0  0  0  0  0  0  0  0  0  0  0
   -6.0771    0.5575   18.5002 C   0  0  0  0  0  0  0  0  0  0  0  0
   -4.7722    0.8997   18.8912 C   0  0  0  0  0  0  0  0  0  0  0  0
   -4.4941    1.3561   20.1922 C   0  0  0  0  0  0  0  0  0  0  0  0
   -2.8971   -0.0493   23.0910 C   0  0  0  0  0  0  0  0  0  0  0  0
   -3.8491   -0.6769   23.9028 C   0  0  0  0  0  0  0  0  0  0  0  0
   -3.9570   -2.0581   23.8660 C   0  0  0  0  0  0  0  0  0  0  0  0
   -3.1859   -2.8504   23.0930 N   0  0  0  0  0  0  0  0  0  0  0  0
   -2.2665   -2.2351   22.3228 C   0  0  0  0  0  0  0  0  0  0  0  0
   -2.0857   -0.8614   22.2883 C   0  0  0  0  0  0  0  0  0  0  0  0
   -2.7385    3.4429   26.7187 C   0  0  0  0  0  0  0  0  0  0  0  0
   -2.0502    4.0859   25.5968 N   0  0  0  0  0  0  0  0  0  0  0  0
   -2.2199    5.5384   25.5473 C   0  0  0  0  0  0  0  0  0  0  0  0
 24 25  1  0
 25 26  1  0
 25  1  1  0
  1  2  2  0
  2  3  1  0
  3 18  1  0
 18 19  2  0
 19 20  1  0
 20 21  2  0
 21 22  1  0
 22 23  2  0
  3  4  2  0
  4  7  1  0
  7  8  2  0
  8  9  1  0
  9 10  2  0
 10 11  1  0
 11 12  2  0
 12 13  1  0
 12 14  1  0
 14 15  2  0
 15 16  1  0
 16 17  2  0
  4  5  1  0
  5  6  2  0
  6  1  1  0
 23 18  1  0
 17  7  1  0
 16 10  1  0
M  END
> <minimizedAffinity>
-9.20590

> <CNNscore>
0.9738962054

> <CNNaffinity>
7.5577149391

> <CNN_VS>
7.3604297638

> <CNNaffinity_variance>
0.0224413220

$$$$



 26 29  0  0  0  0  0  0  0  0999 V2000
   -1.9632    1.8431   25.5417 C   0  0  0  0  0  0  0  0  0  0  0  0
   -1.9742    2.9848   24.7469 C   0  0  0  0  0  0  0  0  0  0  0  0
   -2.2807    2.9238   23.3739 C   0  0  0  0  0  0  0  0  0  0  0  0
   -2.5774    1.6643   22.8399 C   0  0  0  0  0  0  0  0  0  0  0  0
   -2.5390    0.5615   23.6223 N   0  0  0  0  0  0  0  0  0  0  0  0
   -2.2263    0.6561   24.9633 N   0  0  0  0  0  0  0  0  0  0  0  0
   -2.9356    1.3941   21.4353 C   0  0  0  0  0  0  0  0  0  0  0  0
   -1.9701    1.5150   20.4233 C   0  0  0  0  0  0  0  0  0  0  0  0
   -2.2885    1.2739   19.0836 C   0  0  0  0  0  0  0  0  0  0  0  0
   -3.5867    0.8979   18.7146 C   0  0  0  0  0  0  0  0  0  0  0  0
   -3.9245    0.6573   17.3731 C   0  0  0  0  0  0  0  0  0  0  0  0
   -5.2234    0.2823   17.0319 C   0  0  0  0  0  0  0  0  0  0  0  0
   -5.6622   -0.0363   15.2205 Br  0  0  0  0  0  0  0  0  0  0  0  0
   -6.1999    0.1409   18.0128 C   0  0  0  0  0  0  0  0  0  0  0  0
   -5.8745    0.3760   19.3500 C   0  0  0  0  0  0  0  0  0  0  0  0
   -4.5726    0.7552   19.7164 C   0  0  0  0  0  0  0  0  0  0  0  0
   -4.2311    0.9957   21.0595 C   0  0  0  0  0  0  0  0  0  0  0  0
   -2.2355    4.1648   22.5803 C   0  0  0  0  0  0  0  0  0  0  0  0
   -1.0714    4.5591   21.9104 C   0  0  0  0  0  0  0  0  0  0  0  0
   -1.0857    5.7332   21.1742 C   0  0  0  0  0  0  0  0  0  0  0  0
   -2.1629    6.5382   21.0666 N   0  0  0  0  0  0  0  0  0  0  0  0
   -3.2749    6.1527   21.7238 C   0  0  0  0  0  0  0  0  0  0  0  0
   -3.3591    4.9954   22.4818 C   0  0  0  0  0  0  0  0  0  0  0  0
   -2.1384    3.1663   27.5277 C   0  0  0  0  0  0  0  0  0  0  0  0
   -1.6330    1.9366   26.9126 N   0  0  0  0  0  0  0  0  0  0  0  0
   -0.2176    1.6762   27.1771 C   0  0  0  0  0  0  0  0  0  0  0  0
 24 25  1  0
 25 26  1  0
 25  1  1  0
  1  2  2  0
  2  3  1  0
  3 18  1  0
 18 19  2  0
 19 20  1  0
 20 21  2  0
 21 22  1  0
 22 23  2  0
  3  4  2  0
  4  7  1  0
  7  8  2  0
  8  9  1  0
  9 10  2  0
 10 11  1  0
 11 12  2  0
 12 13  1  0
 12 14  1  0
 14 15  2  0
 15 16  1  0
 16 17  2  0
  4  5  1  0
  5  6  2  0
  6  1  1  0
 23 18  1  0
 17  7  1  0
 16 10  1  0
M  END
> <minimizedAffinity>
-8.64392

> <CNNscore>
0.7763193250

> <CNNaffinity>
6.4285178185

> <CNN_VS>
4.9905824661

> <CNNaffinity_variance>
0.0753744170

$$$$



 26 29  0  0  0  0  0  0  0  0999 V2000
   -0.2146    0.9975   24.9122 C   0  0  0  0  0  0  0  0  0  0  0  0
   -0.4451    2.1915   24.2365 C   0  0  0  0  0  0  0  0  0  0  0  0
   -1.2364    2.2387   23.0727 C   0  0  0  0  0  0  0  0  0  0  0  0
   -1.7859    1.0321   22.6233 C   0  0  0  0  0  0  0  0  0  0  0  0
   -1.5321   -0.1233   23.2793 N   0  0  0  0  0  0  0  0  0  0  0  0
   -0.7446   -0.1350   24.4129 N   0  0  0  0  0  0  0  0  0  0  0  0
   -2.6498    0.8750   21.4388 C   0  0  0  0  0  0  0  0  0  0  0  0
   -4.0343    0.6988   21.5915 C   0  0  0  0  0  0  0  0  0  0  0  0
   -4.8720    0.5377   20.4840 C   0  0  0  0  0  0  0  0  0  0  0  0
   -4.3489    0.5532   19.1845 C   0  0  0  0  0  0  0  0  0  0  0  0
   -5.1756    0.3875   18.0617 C   0  0  0  0  0  0  0  0  0  0  0  0
   -4.6306    0.4087   16.7785 C   0  0  0  0  0  0  0  0  0  0  0  0
   -5.7577    0.1823   15.2772 Br  0  0  0  0  0  0  0  0  0  0  0  0
   -3.2644    0.5946   16.5928 C   0  0  0  0  0  0  0  0  0  0  0  0
   -2.4334    0.7622   17.7022 C   0  0  0  0  0  0  0  0  0  0  0  0
   -2.9607    0.7437   19.0039 C   0  0  0  0  0  0  0  0  0  0  0  0
   -2.1351    0.9106   20.1304 C   0  0  0  0  0  0  0  0  0  0  0  0
   -1.4080    3.5293   22.3824 C   0  0  0  0  0  0  0  0  0  0  0  0
   -2.5019    4.3600   22.6522 C   0  0  0  0  0  0  0  0  0  0  0  0
   -2.6116    5.5657   21.9776 C   0  0  0  0  0  0  0  0  0  0  0  0
   -1.7235    5.9936   21.0568 N   0  0  0  0  0  0  0  0  0  0  0  0
   -0.6796    5.1807   20.7988 C   0  0  0  0  0  0  0  0  0  0  0  0
   -0.4820    3.9594   21.4235 C   0  0  0  0  0  0  0  0  0  0  0  0
    0.5560   -0.3046   26.7660 C   0  0  0  0  0  0  0  0  0  0  0  0
    0.6000    0.9820   26.0669 N   0  0  0  0  0  0  0  0  0  0  0  0
    0.3808    2.1395   26.9348 C   0  0  0  0  0  0  0  0  0  0  0  0
 24 25  1  0
 25 26  1  0
 25  1  1  0
  1  2  2  0
  2  3  1  0
  3 18  1  0
 18 19  2  0
 19 20  1  0
 20 21  2  0
 21 22  1  0
 22 23  2  0
  3  4  2  0
  4  7  1  0
  7  8  2  0
  8  9  1  0
  9 10  2  0
 10 11  1  0
 11 12  2  0
 12 13  1  0
 12 14  1  0
 14 15  2  0
 15 16  1  0
 16 17  2  0
  4  5  1  0
  5  6  2  0
  6  1  1  0
 23 18  1  0
 17  7  1  0
 16 10  1  0
M  END
> <minimizedAffinity>
-8.57668

> <CNNscore>
0.5349283814

> <CNNaffinity>
6.5517849922

> <CNN_VS>
3.5047357082

> <CNNaffinity_variance>
0.0590572767

$$$$



 26 29  0  0  0  0  0  0  0  0999 V2000
   -3.7674    0.6250   18.2179 C   0  0  0  0  0  0  0  0  0  0  0  0
   -3.9340   -0.0934   19.3975 C   0  0  0  0  0  0  0  0  0  0  0  0
   -3.2116    0.2263   20.5632 C   0  0  0  0  0  0  0  0  0  0  0  0
   -2.3181    1.3013   20.4875 C   0  0  0  0  0  0  0  0  0  0  0  0
   -2.1514    1.9739   19.3258 N   0  0  0  0  0  0  0  0  0  0  0  0
   -2.8700    1.6285   18.1990 N   0  0  0  0  0  0  0  0  0  0  0  0
   -1.4840    1.7993   21.5968 C   0  0  0  0  0  0  0  0  0  0  0  0
   -0.9273    0.9014   22.5214 C   0  0  0  0  0  0  0  0  0  0  0  0
   -0.1417    1.3507   23.5869 C   0  0  0  0  0  0  0  0  0  0  0  0
    0.1162    2.7171   23.7577 C   0  0  0  0  0  0  0  0  0  0  0  0
    0.8987    3.1854   24.8253 C   0  0  0  0  0  0  0  0  0  0  0  0
    1.1424    4.5504   24.9721 C   0  0  0  0  0  0  0  0  0  0  0  0
    2.1967    5.1647   26.4165 Br  0  0  0  0  0  0  0  0  0  0  0  0
    0.6162    5.4648   24.0652 C   0  0  0  0  0  0  0  0  0  0  0  0
   -0.1619    5.0099   22.9988 C   0  0  0  0  0  0  0  0  0  0  0  0
   -0.4206    3.6394   22.8319 C   0  0  0  0  0  0  0  0  0  0  0  0
   -1.2030    3.1674   21.7626 C   0  0  0  0  0  0  0  0  0  0  0  0
   -3.4056   -0.5999   21.7679 C   0  0  0  0  0  0  0  0  0  0  0  0
   -4.0152   -0.0815   22.9164 C   0  0  0  0  0  0  0  0  0  0  0  0
   -4.1772   -0.9042   24.0198 C   0  0  0  0  0  0  0  0  0  0  0  0
   -3.7712   -2.1900   24.0631 N   0  0  0  0  0  0  0  0  0  0  0  0
   -3.1771   -2.6749   22.9545 C   0  0  0  0  0  0  0  0  0  0  0  0
   -2.9737   -1.9320   21.8023 C   0  0  0  0  0  0  0  0  0  0  0  0
   -3.9607    0.8911   15.8477 C   0  0  0  0  0  0  0  0  0  0  0  0
   -4.4944    0.2662   17.0604 N   0  0  0  0  0  0  0  0  0  0  0  0
   -5.9401    0.4219   17.2241 C   0  0  0  0  0  0  0  0  0  0  0  0
 24 25  1  0
 25 26  1  0
 25  1  1  0
  1  2  2  0
  2  3  1  0
  3 18  1  0
 18 19  2  0
 19 20  1  0
 20 21  2  0
 21 22  1  0
 22 23  2  0
  3  4  2  0
  4  7  1  0
  7  8  2  0
  8  9  1  0
  9 10  2  0
 10 11  1  0
 11 12  2  0
 12 13  1  0
 12 14  1  0
 14 15  2  0
 15 16  1  0
 16 17  2  0
  4  5  1  0
  5  6  2  0
  6  1  1  0
 23 18  1  0
 17  7  1  0
 16 10  1  0
M  END
> <minimizedAffinity>
-8.47467

> <CNNscore>
0.4030331373

> <CNNaffinity>
6.7338824272

> <CNN_VS>
2.7139778137

> <CNNaffinity_variance>
0.1003760993

$$$$



 26 29  0  0  0  0  0  0  0  0999 V2000
   -4.3808    0.7152   18.7688 C   0  0  0  0  0  0  0  0  0  0  0  0
   -3.6161    1.7163   19.3591 C   0  0  0  0  0  0  0  0  0  0  0  0
   -3.0912    1.5735   20.6579 C   0  0  0  0  0  0  0  0  0  0  0  0
   -3.3687    0.3785   21.3323 C   0  0  0  0  0  0  0  0  0  0  0  0
   -4.1337   -0.5744   20.7523 N   0  0  0  0  0  0  0  0  0  0  0  0
   -4.6396   -0.3982   19.4801 N   0  0  0  0  0  0  0  0  0  0  0  0
   -2.9004    0.0329   22.6871 C   0  0  0  0  0  0  0  0  0  0  0  0
   -3.7439   -0.6567   23.5725 C   0  0  0  0  0  0  0  0  0  0  0  0
   -3.3258   -0.9863   24.8651 C   0  0  0  0  0  0  0  0  0  0  0  0
   -2.0440   -0.6393   25.3114 C   0  0  0  0  0  0  0  0  0  0  0  0
   -1.6102   -0.9580   26.6082 C   0  0  0  0  0  0  0  0  0  0  0  0
   -0.3287   -0.6031   27.0278 C   0  0  0  0  0  0  0  0  0  0  0  0
    0.2391   -1.0383   28.7780 Br  0  0  0  0  0  0  0  0  0  0  0  0
    0.5360    0.0689   26.1698 C   0  0  0  0  0  0  0  0  0  0  0  0
    0.1157    0.3893   24.8775 C   0  0  0  0  0  0  0  0  0  0  0  0
   -1.1710    0.0421   24.4340 C   0  0  0  0  0  0  0  0  0  0  0  0
   -1.6077    0.3590   23.1350 C   0  0  0  0  0  0  0  0  0  0  0  0
   -2.3230    2.6882   21.2401 C   0  0  0  0  0  0  0  0  0  0  0  0
   -1.0314    2.9935   20.7952 C   0  0  0  0  0  0  0  0  0  0  0  0
   -0.3557    4.0560   21.3742 C   0  0  0  0  0  0  0  0  0  0  0  0
   -0.8663    4.8218   22.3605 N   0  0  0  0  0  0  0  0  0  0  0  0
   -2.1070    4.5121   22.7868 C   0  0  0  0  0  0  0  0  0  0  0  0
   -2.8621    3.4721   22.2682 C   0  0  0  0  0  0  0  0  0  0  0  0
   -6.1664    0.1751   17.2703 C   0  0  0  0  0  0  0  0  0  0  0  0
   -4.9083    0.8983   17.4707 N   0  0  0  0  0  0  0  0  0  0  0  0
   -3.9185    0.6754   16.4163 C   0  0  0  0  0  0  0  0  0  0  0  0
 24 25  1  0
 25 26  1  0
 25  1  1  0
  1  2  2  0
  2  3  1  0
  3 18  1  0
 18 19  2  0
 19 20  1  0
 20 21  2  0
 21 22  1  0
 22 23  2  0
  3  4  2  0
  4  7  1  0
  7  8  2  0
  8  9  1  0
  9 10  2  0
 10 11  1  0
 11 12  2  0
 12 13  1  0
 12 14  1  0
 14 15  2  0
 15 16  1  0
 16 17  2  0
  4  5  1  0
  5  6  2  0
  6  1  1  0
 23 18  1  0
 17  7  1  0
 16 10  1  0
M  END
> <minimizedAffinity>
-7.08943

> <CNNscore>
0.2498220801

> <CNNaffinity>
6.3978557587

> <CNN_VS>
1.5983256102

> <CNNaffinity_variance>
0.0692262128

$$$$



 26 29  0  0  0  0  0  0  0  0999 V2000
   -2.9689   -0.1673   20.7741 C   0  0  0  0  0  0  0  0  0  0  0  0
   -3.0956    0.9849   21.5434 C   0  0  0  0  0  0  0  0  0  0  0  0
   -2.6206    1.0426   22.8677 C   0  0  0  0  0  0  0  0  0  0  0  0
   -2.0114   -0.1092   23.3797 C   0  0  0  0  0  0  0  0  0  0  0  0
   -1.9178   -1.2282   22.6256 N   0  0  0  0  0  0  0  0  0  0  0  0
   -2.4018   -1.2529   21.3332 N   0  0  0  0  0  0  0  0  0  0  0  0
   -1.4398   -0.2446   24.7321 C   0  0  0  0  0  0  0  0  0  0  0  0
   -0.1597    0.2592   25.0127 C   0  0  0  0  0  0  0  0  0  0  0  0
    0.4071    0.1337   26.2844 C   0  0  0  0  0  0  0  0  0  0  0  0
   -0.2943   -0.4976   27.3198 C   0  0  0  0  0  0  0  0  0  0  0  0
    0.2626   -0.6367   28.6012 C   0  0  0  0  0  0  0  0  0  0  0  0
   -0.4569   -1.2675   29.6155 C   0  0  0  0  0  0  0  0  0  0  0  0
    0.3084   -1.4481   31.3350 Br  0  0  0  0  0  0  0  0  0  0  0  0
   -1.7331   -1.7656   29.3733 C   0  0  0  0  0  0  0  0  0  0  0  0
   -2.2972   -1.6312   28.1032 C   0  0  0  0  0  0  0  0  0  0  0  0
   -1.5903   -0.9999   27.0665 C   0  0  0  0  0  0  0  0  0  0  0  0
   -2.1462   -0.8581   25.7823 C   0  0  0  0  0  0  0  0  0  0  0  0
   -2.8224    2.2806   23.6413 C   0  0  0  0  0  0  0  0  0  0  0  0
   -3.6823    2.3180   24.7451 C   0  0  0  0  0  0  0  0  0  0  0  0
   -3.8311    3.5078   25.4400 C   0  0  0  0  0  0  0  0  0  0  0  0
   -3.1981    4.6528   25.1113 N   0  0  0  0  0  0  0  0  0  0  0  0
   -2.3801    4.6066   24.0409 C   0  0  0  0  0  0  0  0  0  0  0  0
   -2.1639    3.4648   23.2858 C   0  0  0  0  0  0  0  0  0  0  0  0
   -2.6431    0.5661   18.5198 C   0  0  0  0  0  0  0  0  0  0  0  0
   -3.4732   -0.1978   19.4544 N   0  0  0  0  0  0  0  0  0  0  0  0
   -4.8995    0.1207   19.3816 C   0  0  0  0  0  0  0  0  0  0  0  0
 24 25  1  0
 25 26  1  0
 25  1  1  0
  1  2  2  0
  2  3  1  0
  3 18  1  0
 18 19  2  0
 19 20  1  0
 20 21  2  0
 21 22  1  0
 22 23  2  0
  3  4  2  0
  4  7  1  0
  7  8  2  0
  8  9  1  0
  9 10  2  0
 10 11  1  0
 11 12  2  0
 12 13  1  0
 12 14  1  0
 14 15  2  0
 15 16  1  0
 16 17  2  0
  4  5  1  0
  5  6  2  0
  6  1  1  0
 23 18  1  0
 17  7  1  0
 16 10  1  0
M  END
> <minimizedAffinity>
-6.77243

> <CNNscore>
0.2240366638

> <CNNaffinity>
6.0947775841

> <CNN_VS>
1.3654536009

> <CNNaffinity_variance>
0.0233450886

$$$$



 26 29  0  0  0  0  0  0  0  0999 V2000
   -3.8175    0.7966   20.1642 C   0  0  0  0  0  0  0  0  0  0  0  0
   -3.2067    0.0765   21.1859 C   0  0  0  0  0  0  0  0  0  0  0  0
   -2.5271    0.7211   22.2373 C   0  0  0  0  0  0  0  0  0  0  0  0
   -2.4931    2.1204   22.2143 C   0  0  0  0  0  0  0  0  0  0  0  0
   -3.0721    2.8037   21.2006 N   0  0  0  0  0  0  0  0  0  0  0  0
   -3.7233    2.1395   20.1808 N   0  0  0  0  0  0  0  0  0  0  0  0
   -1.8476    2.9765   23.2265 C   0  0  0  0  0  0  0  0  0  0  0  0
   -0.4586    3.1794   23.1995 C   0  0  0  0  0  0  0  0  0  0  0  0
    0.1769    3.9785   24.1543 C   0  0  0  0  0  0  0  0  0  0  0  0
   -0.5612    4.6058   25.1664 C   0  0  0  0  0  0  0  0  0  0  0  0
    0.0621    5.4072   26.1362 C   0  0  0  0  0  0  0  0  0  0  0  0
   -0.6953    6.0223   27.1323 C   0  0  0  0  0  0  0  0  0  0  0  0
    0.1600    7.0969   28.4317 Br  0  0  0  0  0  0  0  0  0  0  0  0
   -2.0753    5.8519   27.1787 C   0  0  0  0  0  0  0  0  0  0  0  0
   -2.7058    5.0585   26.2182 C   0  0  0  0  0  0  0  0  0  0  0  0
   -1.9624    4.4290   25.2062 C   0  0  0  0  0  0  0  0  0  0  0  0
   -2.5844    3.6266   24.2328 C   0  0  0  0  0  0  0  0  0  0  0  0
   -1.8675   -0.1018   23.2666 C   0  0  0  0  0  0  0  0  0  0  0  0
   -2.4862   -0.3675   24.4937 C   0  0  0  0  0  0  0  0  0  0  0  0
   -1.8228   -1.1517   25.4241 C   0  0  0  0  0  0  0  0  0  0  0  0
   -0.5962   -1.6767   25.2245 N   0  0  0  0  0  0  0  0  0  0  0  0
   -0.0068   -1.4060   24.0428 C   0  0  0  0  0  0  0  0  0  0  0  0
   -0.5909   -0.6360   23.0495 C   0  0  0  0  0  0  0  0  0  0  0  0
   -3.9585    0.4919   17.7950 C   0  0  0  0  0  0  0  0  0  0  0  0
   -4.4755    0.1179   19.1137 N   0  0  0  0  0  0  0  0  0  0  0  0
   -5.9335    0.1782   19.2210 C   0  0  0  0  0  0  0  0  0  0  0  0
 24 25  1  0
 25 26  1  0
 25  1  1  0
  1  2  2  0
  2  3  1  0
  3 18  1  0
 18 19  2  0
 19 20  1  0
 20 21  2  0
 21 22  1  0
 22 23  2  0
  3  4  2  0
  4  7  1  0
  7  8  2  0
  8  9  1  0
  9 10  2  0
 10 11  1  0
 11 12  2  0
 12 13  1  0
 12 14  1  0
 14 15  2  0
 15 16  1  0
 16 17  2  0
  4  5  1  0
  5  6  2  0
  6  1  1  0
 23 18  1  0
 17  7  1  0
 16 10  1  0
M  END
> <minimizedAffinity>
-7.09279

> <CNNscore>
0.1854487211

> <CNNaffinity>
6.0094017982

> <CNN_VS>
1.1144359112

> <CNNaffinity_variance>
0.1742308736

$$$$



 26 29  0  0  0  0  0  0  0  0999 V2000
    1.1495    6.3933   19.5201 C   0  0  0  0  0  0  0  0  0  0  0  0
    0.2488    6.6179   20.5562 C   0  0  0  0  0  0  0  0  0  0  0  0
   -0.5099    5.5704   21.1130 C   0  0  0  0  0  0  0  0  0  0  0  0
   -0.3185    4.2893   20.5819 C   0  0  0  0  0  0  0  0  0  0  0  0
    0.5442    4.0932   19.5586 N   0  0  0  0  0  0  0  0  0  0  0  0
    1.2661    5.1445   19.0306 N   0  0  0  0  0  0  0  0  0  0  0  0
   -1.0033    3.0648   21.0355 C   0  0  0  0  0  0  0  0  0  0  0  0
   -1.6942    2.2591   20.1165 C   0  0  0  0  0  0  0  0  0  0  0  0
   -2.3593    1.0992   20.5245 C   0  0  0  0  0  0  0  0  0  0  0  0
   -2.3492    0.7056   21.8690 C   0  0  0  0  0  0  0  0  0  0  0  0
   -3.0166   -0.4535   22.2963 C   0  0  0  0  0  0  0  0  0  0  0  0
   -2.9898   -0.8249   23.6400 C   0  0  0  0  0  0  0  0  0  0  0  0
   -3.8952   -2.3878   24.1992 Br  0  0  0  0  0  0  0  0  0  0  0  0
   -2.3029   -0.0551   24.5734 C   0  0  0  0  0  0  0  0  0  0  0  0
   -1.6344    1.0986   24.1591 C   0  0  0  0  0  0  0  0  0  0  0  0
   -1.6485    1.4917   22.8107 C   0  0  0  0  0  0  0  0  0  0  0  0
   -0.9799    2.6517   22.3797 C   0  0  0  0  0  0  0  0  0  0  0  0
   -1.4756    5.8830   22.1814 C   0  0  0  0  0  0  0  0  0  0  0  0
   -2.8551    5.8642   21.9448 C   0  0  0  0  0  0  0  0  0  0  0  0
   -3.7189    6.1615   22.9870 C   0  0  0  0  0  0  0  0  0  0  0  0
   -3.3101    6.4814   24.2322 N   0  0  0  0  0  0  0  0  0  0  0  0
   -1.9793    6.5054   24.4451 C   0  0  0  0  0  0  0  0  0  0  0  0
   -1.0381    6.2200   23.4687 C   0  0  0  0  0  0  0  0  0  0  0  0
    1.0218    8.4465   18.2978 C   0  0  0  0  0  0  0  0  0  0  0  0
    1.8816    7.4702   18.9711 N   0  0  0  0  0  0  0  0  0  0  0  0
    3.0260    7.0326   18.1712 C   0  0  0  0  0  0  0  0  0  0  0  0
 24 25  1  0
 25 26  1  0
 25  1  1  0
  1  2  2  0
  2  3  1  0
  3 18  1  0
 18 19  2  0
 19 20  1  0
 20 21  2  0
 21 22  1  0
 22 23  2  0
  3  4  2  0
  4  7  1  0
  7  8  2  0
  8  9  1  0
  9 10  2  0
 10 11  1  0
 11 12  2  0
 12 13  1  0
 12 14  1  0
 14 15  2  0
 15 16  1  0
 16 17  2  0
  4  5  1  0
  5  6  2  0
  6  1  1  0
 23 18  1  0
 17  7  1  0
 16 10  1  0
M  END
> <minimizedAffinity>
-7.47025

> <CNNscore>
0.1758567691

> <CNNaffinity>
5.8152451515

> <CNN_VS>
1.0226502419

> <CNNaffinity_variance>
0.2176980972

$$$$



 26 29  0  0  0  0  0  0  0  0999 V2000
   -0.4074    3.9316   21.7232 C   0  0  0  0  0  0  0  0  0  0  0  0
   -1.1165    2.7347   21.7179 C   0  0  0  0  0  0  0  0  0  0  0  0
   -1.1246    1.8781   22.8355 C   0  0  0  0  0  0  0  0  0  0  0  0
   -0.3902    2.2822   23.9567 C   0  0  0  0  0  0  0  0  0  0  0  0
    0.3126    3.4378   23.9359 N   0  0  0  0  0  0  0  0  0  0  0  0
    0.3054    4.2502   22.8201 N   0  0  0  0  0  0  0  0  0  0  0  0
   -0.2849    1.5359   25.2240 C   0  0  0  0  0  0  0  0  0  0  0  0
    0.6623    0.5091   25.3636 C   0  0  0  0  0  0  0  0  0  0  0  0
    0.7738   -0.2190   26.5518 C   0  0  0  0  0  0  0  0  0  0  0  0
   -0.0586    0.0626   27.6428 C   0  0  0  0  0  0  0  0  0  0  0  0
    0.0368   -0.6625   28.8414 C   0  0  0  0  0  0  0  0  0  0  0  0
   -0.8022   -0.3614   29.9136 C   0  0  0  0  0  0  0  0  0  0  0  0
   -0.6619   -1.3487   31.5200 Br  0  0  0  0  0  0  0  0  0  0  0  0
   -1.7422    0.6592   29.8118 C   0  0  0  0  0  0  0  0  0  0  0  0
   -1.8444    1.3878   28.6251 C   0  0  0  0  0  0  0  0  0  0  0  0
   -1.0099    1.1013   27.5322 C   0  0  0  0  0  0  0  0  0  0  0  0
   -1.1025    1.8269   26.3309 C   0  0  0  0  0  0  0  0  0  0  0  0
   -1.8634    0.6058   22.7498 C   0  0  0  0  0  0  0  0  0  0  0  0
   -3.2104    0.5192   23.1205 C   0  0  0  0  0  0  0  0  0  0  0  0
   -3.8584   -0.7013   23.0153 C   0  0  0  0  0  0  0  0  0  0  0  0
   -3.2636   -1.8314   22.5804 N   0  0  0  0  0  0  0  0  0  0  0  0
   -1.9640   -1.7374   22.2354 C   0  0  0  0  0  0  0  0  0  0  0  0
   -1.2325   -0.5621   22.3026 C   0  0  0  0  0  0  0  0  0  0  0  0
    0.8711    4.7183   19.8598 C   0  0  0  0  0  0  0  0  0  0  0  0
   -0.4051    4.7594   20.5779 N   0  0  0  0  0  0  0  0  0  0  0  0
   -0.8916    6.1121   20.8511 C   0  0  0  0  0  0  0  0  0  0  0  0
 24 25  1  0
 25 26  1  0
 25  1  1  0
  1  2  2  0
  2  3  1  0
  3 18  1  0
 18 19  2  0
 19 20  1  0
 20 21  2  0
 21 22  1  0
 22 23  2  0
  3  4  2  0
  4  7  1  0
  7  8  2  0
  8  9  1  0
  9 10  2  0
 10 11  1  0
 11 12  2  0
 12 13  1  0
 12 14  1  0
 14 15  2  0
 15 16  1  0
 16 17  2  0
  4  5  1  0
  5  6  2  0
  6  1  1  0
 23 18  1  0
 17  7  1  0
 16 10  1  0
M  END
> <minimizedAffinity>
-6.80685

> <CNNscore>
0.1615696549

> <CNNaffinity>
6.0107436180

> <CNN_VS>
0.9711537957

> <CNNaffinity_variance>
0.0147133702

$$$$
