


 17 18  0  0  0  0  0  0  0  0999 V2000
   -0.2135    9.4580   10.3641 C   0  0  0  0  0  0  0  0  0  0  0  0
   -0.1566   10.9918   10.1536 C   0  0  0  0  0  0  0  0  0  0  0  0
    1.0374   11.5542   10.7304 O   0  0  0  0  0  0  0  0  0  0  0  0
   -0.1920   11.3609    8.6594 C   0  0  0  0  0  0  0  0  0  0  0  0
   -0.4362   12.7742    8.5304 O   0  0  0  0  0  0  0  0  0  0  0  0
   -1.2592   10.5331    7.9000 C   0  0  0  0  0  0  0  0  0  0  0  0
   -1.3195   10.9236    6.5464 O   0  0  0  0  0  0  0  0  0  0  0  0
   -2.6518   10.5747    8.5381 C   0  0  0  0  0  0  0  0  0  0  0  0
   -2.6471    9.4062    9.5230 C   0  0  0  0  0  0  0  0  0  0  0  0
   -1.2418    8.8069    9.3930 C   0  0  0  0  0  0  0  0  0  0  0  0
   -0.8880    9.1258    7.9972 N   0  0  0  0  0  0  0  0  0  0  0  0
    1.8163   11.1852   10.2854 H   0  0  0  0  0  0  0  0  0  0  0  0
   -1.2927   12.9921    8.9303 H   0  0  0  0  0  0  0  0  0  0  0  0
   -1.5668   11.8599    6.4908 H   0  0  0  0  0  0  0  0  0  0  0  0
   -1.4219    8.5562    7.3408 H   0  0  0  0  0  0  0  0  0  0  0  0
   -0.5228    7.7100   11.9723 C   0  0  0  0  0  0  0  0  0  0  0  0
   -0.6169    9.1024   11.7002 O   0  0  0  0  0  0  0  0  0  0  0  0
 16 17  1  0
  1 17  1  0
  1  2  1  0
  2  3  1  0
  2  4  1  0
  4  5  1  0
  4  6  1  0
  6  7  1  0
  6  8  1  0
  8  9  1  0
 10  9  1  0
 10 11  1  0
 10  1  1  0
 11  6  1  0
  3 12  1  0
  5 13  1  0
  7 14  1  0
 11 15  1  0
M  END
> <minimizedAffinity>
-7.03497

> <CNNscore>
0.9569240212

> <CNNaffinity>
5.5621237755

> <CNN_VS>
5.3225297928

> <CNNaffinity_variance>
0.3503336906

$$$$



 17 18  0  0  0  0  0  0  0  0999 V2000
   -1.5570    4.5957   17.0241 C   0  0  0  0  0  0  0  0  0  0  0  0
   -2.8412    5.2207   16.4239 C   0  0  0  0  0  0  0  0  0  0  0  0
   -3.8616    5.3829   17.4276 O   0  0  0  0  0  0  0  0  0  0  0  0
   -2.5607    6.5967   15.7928 C   0  0  0  0  0  0  0  0  0  0  0  0
   -3.6972    6.9908   15.0012 O   0  0  0  0  0  0  0  0  0  0  0  0
   -1.2640    6.5734   14.9448 C   0  0  0  0  0  0  0  0  0  0  0  0
   -1.0526    7.8232   14.3271 O   0  0  0  0  0  0  0  0  0  0  0  0
   -1.2145    5.4433   13.9111 C   0  0  0  0  0  0  0  0  0  0  0  0
   -0.5779    4.2755   14.6638 C   0  0  0  0  0  0  0  0  0  0  0  0
   -0.3413    4.8200   16.0775 C   0  0  0  0  0  0  0  0  0  0  0  0
   -0.1514    6.2623   15.8351 N   0  0  0  0  0  0  0  0  0  0  0  0
   -3.5487    5.9966   18.1105 H   0  0  0  0  0  0  0  0  0  0  0  0
   -3.8395    6.3419   14.2944 H   0  0  0  0  0  0  0  0  0  0  0  0
   -1.7965    8.0223   13.7372 H   0  0  0  0  0  0  0  0  0  0  0  0
    0.7452    6.4469   15.3852 H   0  0  0  0  0  0  0  0  0  0  0  0
   -1.3198    2.7450   18.5262 C   0  0  0  0  0  0  0  0  0  0  0  0
   -1.6786    3.1738   17.2189 O   0  0  0  0  0  0  0  0  0  0  0  0
 16 17  1  0
  1 17  1  0
  1  2  1  0
  2  3  1  0
  2  4  1  0
  4  5  1  0
  4  6  1  0
  6  7  1  0
  6  8  1  0
  8  9  1  0
 10  9  1  0
 10 11  1  0
 10  1  1  0
 11  6  1  0
  3 12  1  0
  5 13  1  0
  7 14  1  0
 11 15  1  0
M  END
> <minimizedAffinity>
-5.54954

> <CNNscore>
0.3646557331

> <CNNaffinity>
3.1243846416

> <CNN_VS>
1.1393247843

> <CNNaffinity_variance>
0.4503954947

$$$$



 17 18  0  0  0  0  0  0  0  0999 V2000
   -1.1393    5.2892   16.1946 C   0  0  0  0  0  0  0  0  0  0  0  0
   -2.4381    4.8842   16.9357 C   0  0  0  0  0  0  0  0  0  0  0  0
   -2.1444    4.1904   18.1633 O   0  0  0  0  0  0  0  0  0  0  0  0
   -3.3066    6.1108   17.2695 C   0  0  0  0  0  0  0  0  0  0  0  0
   -4.6129    5.6640   17.6788 O   0  0  0  0  0  0  0  0  0  0  0  0
   -3.3951    7.0824   16.0656 C   0  0  0  0  0  0  0  0  0  0  0  0
   -4.2402    8.1702   16.3670 O   0  0  0  0  0  0  0  0  0  0  0  0
   -3.8199    6.4139   14.7539 C   0  0  0  0  0  0  0  0  0  0  0  0
   -2.5038    5.9670   14.1184 C   0  0  0  0  0  0  0  0  0  0  0  0
   -1.4322    6.3879   15.1310 C   0  0  0  0  0  0  0  0  0  0  0  0
   -2.0483    7.5621   15.7765 N   0  0  0  0  0  0  0  0  0  0  0  0
   -1.6583    4.7807   18.7601 H   0  0  0  0  0  0  0  0  0  0  0  0
   -5.0277    5.1706   16.9539 H   0  0  0  0  0  0  0  0  0  0  0  0
   -5.1331    7.8428   16.5579 H   0  0  0  0  0  0  0  0  0  0  0  0
   -2.0684    8.3631   15.1454 H   0  0  0  0  0  0  0  0  0  0  0  0
    0.7548    4.4689   14.9794 C   0  0  0  0  0  0  0  0  0  0  0  0
   -0.5378    4.1818   15.4974 O   0  0  0  0  0  0  0  0  0  0  0  0
 16 17  1  0
  1 17  1  0
  1  2  1  0
  2  3  1  0
  2  4  1  0
  4  5  1  0
  4  6  1  0
  6  7  1  0
  6  8  1  0
  8  9  1  0
 10  9  1  0
 10 11  1  0
 10  1  1  0
 11  6  1  0
  3 12  1  0
  5 13  1  0
  7 14  1  0
 11 15  1  0
M  END
> <minimizedAffinity>
-6.62727

> <CNNscore>
0.3044750988

> <CNNaffinity>
3.0728728771

> <CNN_VS>
0.9356132746

> <CNNaffinity_variance>
0.6979253888

$$$$



 17 18  0  0  0  0  0  0  0  0999 V2000
   -0.8858    3.9018   16.4885 C   0  0  0  0  0  0  0  0  0  0  0  0
    0.0906    4.8707   15.7759 C   0  0  0  0  0  0  0  0  0  0  0  0
    1.0552    4.1514   14.9841 O   0  0  0  0  0  0  0  0  0  0  0  0
   -0.6561    5.8522   14.8543 C   0  0  0  0  0  0  0  0  0  0  0  0
    0.2458    6.9023   14.4574 O   0  0  0  0  0  0  0  0  0  0  0  0
   -1.9183    6.4252   15.5467 C   0  0  0  0  0  0  0  0  0  0  0  0
   -2.5581    7.3654   14.7129 O   0  0  0  0  0  0  0  0  0  0  0  0
   -1.6531    7.0228   16.9326 C   0  0  0  0  0  0  0  0  0  0  0  0
   -1.8334    5.8443   17.8888 C   0  0  0  0  0  0  0  0  0  0  0  0
   -2.1576    4.6589   16.9721 C   0  0  0  0  0  0  0  0  0  0  0  0
   -2.8194    5.3132   15.8281 N   0  0  0  0  0  0  0  0  0  0  0  0
    0.5970    3.6579   14.2859 H   0  0  0  0  0  0  0  0  0  0  0  0
    0.5531    7.3790   15.2443 H   0  0  0  0  0  0  0  0  0  0  0  0
   -1.9525    8.1009   14.5308 H   0  0  0  0  0  0  0  0  0  0  0  0
   -3.7502    5.6459   16.0799 H   0  0  0  0  0  0  0  0  0  0  0  0
   -1.1621    2.3702   18.3094 C   0  0  0  0  0  0  0  0  0  0  0  0
   -0.2978    3.2871   17.6507 O   0  0  0  0  0  0  0  0  0  0  0  0
 16 17  1  0
  1 17  1  0
  1  2  1  0
  2  3  1  0
  2  4  1  0
  4  5  1  0
  4  6  1  0
  6  7  1  0
  6  8  1  0
  8  9  1  0
 10  9  1  0
 10 11  1  0
 10  1  1  0
 11  6  1  0
  3 12  1  0
  5 13  1  0
  7 14  1  0
 11 15  1  0
M  END
> <minimizedAffinity>
-5.19554

> <CNNscore>
0.3022165298

> <CNNaffinity>
3.2073853016

> <CNN_VS>
0.9693248272

> <CNNaffinity_variance>
0.3974155486

$$$$



 17 18  0  0  0  0  0  0  0  0999 V2000
   -1.9843    6.9704   15.7911 C   0  0  0  0  0  0  0  0  0  0  0  0
   -3.2027    6.0544   15.5147 C   0  0  0  0  0  0  0  0  0  0  0  0
   -3.9894    6.5494   14.4143 O   0  0  0  0  0  0  0  0  0  0  0  0
   -2.7671    4.6142   15.1884 C   0  0  0  0  0  0  0  0  0  0  0  0
   -3.9201    3.7528   15.2354 O   0  0  0  0  0  0  0  0  0  0  0  0
   -1.6603    4.1276   16.1574 C   0  0  0  0  0  0  0  0  0  0  0  0
   -1.3139    2.7886   15.8828 O   0  0  0  0  0  0  0  0  0  0  0  0
   -2.0065    4.3042   17.6397 C   0  0  0  0  0  0  0  0  0  0  0  0
   -1.4947    5.7036   17.9792 C   0  0  0  0  0  0  0  0  0  0  0  0
   -0.9235    6.2291   16.6570 C   0  0  0  0  0  0  0  0  0  0  0  0
   -0.4976    4.9902   15.9798 N   0  0  0  0  0  0  0  0  0  0  0  0
   -3.4528    6.5468   13.6063 H   0  0  0  0  0  0  0  0  0  0  0  0
   -4.3028    3.7732   16.1265 H   0  0  0  0  0  0  0  0  0  0  0  0
   -2.0921    2.2221   16.0032 H   0  0  0  0  0  0  0  0  0  0  0  0
    0.3299    4.5918   16.4235 H   0  0  0  0  0  0  0  0  0  0  0  0
   -2.5928    9.2837   15.6644 C   0  0  0  0  0  0  0  0  0  0  0  0
   -2.3481    8.1655   16.5079 O   0  0  0  0  0  0  0  0  0  0  0  0
 16 17  1  0
  1 17  1  0
  1  2  1  0
  2  3  1  0
  2  4  1  0
  4  5  1  0
  4  6  1  0
  6  7  1  0
  6  8  1  0
  8  9  1  0
 10  9  1  0
 10 11  1  0
 10  1  1  0
 11  6  1  0
  3 12  1  0
  5 13  1  0
  7 14  1  0
 11 15  1  0
M  END
> <minimizedAffinity>
-5.36631

> <CNNscore>
0.2911518812

> <CNNaffinity>
3.2256698608

> <CNN_VS>
0.9391598701

> <CNNaffinity_variance>
0.4421709478

$$$$



 17 18  0  0  0  0  0  0  0  0999 V2000
    0.5222    4.4870   14.1624 C   0  0  0  0  0  0  0  0  0  0  0  0
    0.5205    5.3957   15.4171 C   0  0  0  0  0  0  0  0  0  0  0  0
    0.4953    6.7891   15.0530 O   0  0  0  0  0  0  0  0  0  0  0  0
   -0.6918    5.1104   16.3223 C   0  0  0  0  0  0  0  0  0  0  0  0
   -0.4899    5.7543   17.5944 O   0  0  0  0  0  0  0  0  0  0  0  0
   -0.9220    3.5875   16.4918 C   0  0  0  0  0  0  0  0  0  0  0  0
   -1.9985    3.3430   17.3691 O   0  0  0  0  0  0  0  0  0  0  0  0
    0.3241    2.8134   16.9348 C   0  0  0  0  0  0  0  0  0  0  0  0
    1.0077    2.4235   15.6247 C   0  0  0  0  0  0  0  0  0  0  0  0
    0.1152    3.0314   14.5363 C   0  0  0  0  0  0  0  0  0  0  0  0
   -1.2135    3.0288   15.1763 N   0  0  0  0  0  0  0  0  0  0  0  0
   -0.3237    6.9825   14.5707 H   0  0  0  0  0  0  0  0  0  0  0  0
    0.3087    5.3980   18.0140 H   0  0  0  0  0  0  0  0  0  0  0  0
   -1.7966    3.7174   18.2408 H   0  0  0  0  0  0  0  0  0  0  0  0
   -1.5864    2.0824   15.2507 H   0  0  0  0  0  0  0  0  0  0  0  0
    1.7803    4.5230   12.1244 C   0  0  0  0  0  0  0  0  0  0  0  0
    1.8195    4.4121   13.5414 O   0  0  0  0  0  0  0  0  0  0  0  0
 16 17  1  0
  1 17  1  0
  1  2  1  0
  2  3  1  0
  2  4  1  0
  4  5  1  0
  4  6  1  0
  6  7  1  0
  6  8  1  0
  8  9  1  0
 10  9  1  0
 10 11  1  0
 10  1  1  0
 11  6  1  0
  3 12  1  0
  5 13  1  0
  7 14  1  0
 11 15  1  0
M  END
> <minimizedAffinity>
-5.07579

> <CNNscore>
0.2485234588

> <CNNaffinity>
2.5700533390

> <CNN_VS>
0.6387185454

> <CNNaffinity_variance>
0.9250469208

$$$$



 17 18  0  0  0  0  0  0  0  0999 V2000
   -2.6074    4.8312   14.3608 C   0  0  0  0  0  0  0  0  0  0  0  0
   -1.1811    5.1015   14.9017 C   0  0  0  0  0  0  0  0  0  0  0  0
   -0.2847    4.0230   14.5729 O   0  0  0  0  0  0  0  0  0  0  0  0
   -0.5965    6.4069   14.3323 C   0  0  0  0  0  0  0  0  0  0  0  0
    0.5815    6.7600   15.0815 O   0  0  0  0  0  0  0  0  0  0  0  0
   -1.6428    7.5497   14.3557 C   0  0  0  0  0  0  0  0  0  0  0  0
   -1.0751    8.7519   13.8859 O   0  0  0  0  0  0  0  0  0  0  0  0
   -2.3056    7.7612   15.7210 C   0  0  0  0  0  0  0  0  0  0  0  0
   -3.5216    6.8360   15.6938 C   0  0  0  0  0  0  0  0  0  0  0  0
   -3.4417    6.1454   14.3272 C   0  0  0  0  0  0  0  0  0  0  0  0
   -2.7564    7.1558   13.5000 N   0  0  0  0  0  0  0  0  0  0  0  0
   -0.2055    3.9510   13.6088 H   0  0  0  0  0  0  0  0  0  0  0  0
    0.3435    6.8994   16.0114 H   0  0  0  0  0  0  0  0  0  0  0  0
   -0.3359    9.0065   14.4601 H   0  0  0  0  0  0  0  0  0  0  0  0
   -3.3679    7.9475   13.3008 H   0  0  0  0  0  0  0  0  0  0  0  0
   -3.1941    2.5431   14.7584 C   0  0  0  0  0  0  0  0  0  0  0  0
   -3.3353    3.8944   15.1775 O   0  0  0  0  0  0  0  0  0  0  0  0
 16 17  1  0
  1 17  1  0
  1  2  1  0
  2  3  1  0
  2  4  1  0
  4  5  1  0
  4  6  1  0
  6  7  1  0
  6  8  1  0
  8  9  1  0
 10  9  1  0
 10 11  1  0
 10  1  1  0
 11  6  1  0
  3 12  1  0
  5 13  1  0
  7 14  1  0
 11 15  1  0
M  END
> <minimizedAffinity>
-5.16105

> <CNNscore>
0.2292102575

> <CNNaffinity>
2.7642199993

> <CNN_VS>
0.6335875988

> <CNNaffinity_variance>
0.9832987785

$$$$



 17 18  0  0  0  0  0  0  0  0999 V2000
   -2.7367    5.4418   14.3944 C   0  0  0  0  0  0  0  0  0  0  0  0
   -1.6721    6.4864   13.9759 C   0  0  0  0  0  0  0  0  0  0  0  0
   -1.4787    6.4922   12.5485 O   0  0  0  0  0  0  0  0  0  0  0  0
   -2.0683    7.9076   14.4159 C   0  0  0  0  0  0  0  0  0  0  0  0
   -0.9300    8.7779   14.2731 O   0  0  0  0  0  0  0  0  0  0  0  0
   -2.6064    7.9176   15.8689 C   0  0  0  0  0  0  0  0  0  0  0  0
   -2.9098    9.2329   16.2766 O   0  0  0  0  0  0  0  0  0  0  0  0
   -1.6804    7.2366   16.8822 C   0  0  0  0  0  0  0  0  0  0  0  0
   -2.1274    5.7752   16.8743 C   0  0  0  0  0  0  0  0  0  0  0  0
   -3.2535    5.7292   15.8348 C   0  0  0  0  0  0  0  0  0  0  0  0
   -3.8092    7.0933   15.9074 N   0  0  0  0  0  0  0  0  0  0  0  0
   -2.3054    6.7498   12.1113 H   0  0  0  0  0  0  0  0  0  0  0  0
   -0.2081    8.4616   14.8386 H   0  0  0  0  0  0  0  0  0  0  0  0
   -2.1052    9.7739   16.2482 H   0  0  0  0  0  0  0  0  0  0  0  0
   -4.3278    7.2359   16.7741 H   0  0  0  0  0  0  0  0  0  0  0  0
   -3.1771    3.1157   14.7592 C   0  0  0  0  0  0  0  0  0  0  0  0
   -2.2160    4.0990   14.3971 O   0  0  0  0  0  0  0  0  0  0  0  0
 16 17  1  0
  1 17  1  0
  1  2  1  0
  2  3  1  0
  2  4  1  0
  4  5  1  0
  4  6  1  0
  6  7  1  0
  6  8  1  0
  8  9  1  0
 10  9  1  0
 10 11  1  0
 10  1  1  0
 11  6  1  0
  3 12  1  0
  5 13  1  0
  7 14  1  0
 11 15  1  0
M  END
> <minimizedAffinity>
-5.63945

> <CNNscore>
0.2288919687

> <CNNaffinity>
2.9265053272

> <CNN_VS>
0.6698535681

> <CNNaffinity_variance>
0.7579372525

$$$$



 17 18  0  0  0  0  0  0  0  0999 V2000
   -0.9842    7.1362   15.5809 C   0  0  0  0  0  0  0  0  0  0  0  0
   -1.3117    5.8184   16.3266 C   0  0  0  0  0  0  0  0  0  0  0  0
   -0.2285    5.4238   17.1903 O   0  0  0  0  0  0  0  0  0  0  0  0
   -2.5864    5.9511   17.1796 C   0  0  0  0  0  0  0  0  0  0  0  0
   -3.0061    4.6406   17.6040 O   0  0  0  0  0  0  0  0  0  0  0  0
   -3.7115    6.6786   16.4012 C   0  0  0  0  0  0  0  0  0  0  0  0
   -4.8895    6.7404   17.1738 O   0  0  0  0  0  0  0  0  0  0  0  0
   -4.0009    6.0822   15.0196 C   0  0  0  0  0  0  0  0  0  0  0  0
   -3.0567    6.8343   14.0823 C   0  0  0  0  0  0  0  0  0  0  0  0
   -2.2800    7.7800   15.0060 C   0  0  0  0  0  0  0  0  0  0  0  0
   -3.2453    8.0260   16.0936 N   0  0  0  0  0  0  0  0  0  0  0  0
   -0.0951    6.1011   17.8717 H   0  0  0  0  0  0  0  0  0  0  0  0
   -3.2019    4.0960   16.8255 H   0  0  0  0  0  0  0  0  0  0  0  0
   -5.1926    5.8409   17.3737 H   0  0  0  0  0  0  0  0  0  0  0  0
   -4.0125    8.6204   15.7799 H   0  0  0  0  0  0  0  0  0  0  0  0
    0.2719    5.5693   14.2751 C   0  0  0  0  0  0  0  0  0  0  0  0
   -0.0911    6.9302   14.4699 O   0  0  0  0  0  0  0  0  0  0  0  0
 16 17  1  0
  1 17  1  0
  1  2  1  0
  2  3  1  0
  2  4  1  0
  4  5  1  0
  4  6  1  0
  6  7  1  0
  6  8  1  0
  8  9  1  0
 10  9  1  0
 10 11  1  0
 10  1  1  0
 11  6  1  0
  3 12  1  0
  5 13  1  0
  7 14  1  0
 11 15  1  0
M  END
> <minimizedAffinity>
-7.30254

> <CNNscore>
0.2220470607

> <CNNaffinity>
3.1952877045

> <CNN_VS>
0.7095042467

> <CNNaffinity_variance>
0.5341984034

$$$$
