


 26 29  0  0  0  0  0  0  0  0999 V2000
    8.5568   57.4326   -0.5064 C   0  0  0  0  0  0  0  0  0  0  0  0
    8.5261   58.7007   -0.8922 N   0  0  0  0  0  0  0  0  0  0  0  0
    7.3156   59.1857   -0.4851 C   0  0  0  0  0  0  0  0  0  0  0  0
    6.7397   60.4632   -0.6060 C   0  0  0  0  0  0  0  0  0  0  0  0
    5.5124   60.7736   -0.0906 N   0  0  0  0  0  0  0  0  0  0  0  0
    4.9057   59.7674    0.5611 C   0  0  0  0  0  0  0  0  0  0  0  0
    3.6961   59.8128    1.1939 N   0  0  0  0  0  0  0  0  0  0  0  0
    3.4355   58.5913    1.7766 C   0  0  0  0  0  0  0  0  0  0  0  0
    4.4918   57.7363    1.5046 C   0  0  0  0  0  0  0  0  0  0  0  0
    5.4002   58.4908    0.7206 C   0  0  0  0  0  0  0  0  0  0  0  0
    6.6129   58.1905    0.1684 C   0  0  0  0  0  0  0  0  0  0  0  0
    7.3586   57.0593    0.1049 N   0  0  0  0  0  0  0  0  0  0  0  0
    3.1021   60.5971    1.2284 H   0  0  0  0  0  0  0  0  0  0  0  0
    7.0041   55.7249    0.5816 C   0  0  0  0  0  0  0  0  0  0  0  0
    6.9447   55.5585    2.1154 C   0  0  0  0  0  0  0  0  0  0  0  0
    5.6793   54.8670    2.6268 C   0  0  0  0  0  0  0  0  0  0  0  0
    5.2250   53.6322    1.8237 C   0  0  0  0  0  0  0  0  0  0  0  0
    5.5184   53.7257    0.3146 C   0  0  0  0  0  0  0  0  0  0  0  0
    5.7826   55.1538   -0.1497 C   0  0  0  0  0  0  0  0  0  0  0  0
    5.7058   52.2981    2.4311 C   0  0  0  0  0  0  0  0  0  0  0  0
    4.6451   51.2866    2.5308 C   0  0  0  0  0  0  0  0  0  0  0  0
    3.8189   50.4783    2.6291 N   0  0  0  0  0  0  0  0  0  0  0  0
   10.7310   57.1471   -1.7155 C   0  0  0  0  0  0  0  0  0  0  0  0
    9.7748   56.5771   -0.6784 C   0  0  0  0  0  0  0  0  0  0  0  0
   10.4354   56.5636    0.5883 O   0  0  0  0  0  0  0  0  0  0  0  0
   10.6734   57.4700    0.8386 H   0  0  0  0  0  0  0  0  0  0  0  0
 24 23  1  0
 24 25  1  0
 24  1  1  0
  1  2  2  0
  2  3  1  0
  3  4  2  0
  4  5  1  0
  5  6  2  0
  6  7  1  0
  7  8  1  0
  8  9  2  0
  9 10  1  0
 10 11  2  0
 11 12  1  0
 14 12  1  0
 14 15  1  0
 15 16  1  0
 16 17  1  0
 17 20  1  0
 20 21  1  0
 21 22  3  0
 17 18  1  0
 18 19  1  0
 12  1  1  0
 19 14  1  0
 11  3  1  0
 10  6  1  0
 25 26  1  0
  7 13  1  0
M  END
> <minimizedAffinity>
-9.94436

> <CNNscore>
0.9966637492

> <CNNaffinity>
8.2800407410

> <CNN_VS>
8.2524166107

> <CNNaffinity_variance>
0.1086774543

$$$$



 26 29  0  0  0  0  0  0  0  0999 V2000
    9.1546   56.1030    0.0117 C   0  0  0  0  0  0  0  0  0  0  0  0
    9.4233   57.3262   -0.4237 N   0  0  0  0  0  0  0  0  0  0  0  0
    8.2581   58.0294   -0.3041 C   0  0  0  0  0  0  0  0  0  0  0  0
    7.9492   59.3698   -0.5974 C   0  0  0  0  0  0  0  0  0  0  0  0
    6.7156   59.9122   -0.3686 N   0  0  0  0  0  0  0  0  0  0  0  0
    5.8241   59.0696    0.1798 C   0  0  0  0  0  0  0  0  0  0  0  0
    4.5379   59.3574    0.5378 N   0  0  0  0  0  0  0  0  0  0  0  0
    3.9566   58.2420    1.1013 C   0  0  0  0  0  0  0  0  0  0  0  0
    4.8816   57.2099    1.0960 C   0  0  0  0  0  0  0  0  0  0  0  0
    6.0469   57.7461    0.4933 C   0  0  0  0  0  0  0  0  0  0  0  0
    7.2757   57.2132    0.2250 C   0  0  0  0  0  0  0  0  0  0  0  0
    7.8111   55.9752    0.3684 N   0  0  0  0  0  0  0  0  0  0  0  0
    4.0943   60.2274    0.4126 H   0  0  0  0  0  0  0  0  0  0  0  0
    7.1412   54.7557    0.8131 C   0  0  0  0  0  0  0  0  0  0  0  0
    6.8676   54.6601    2.3295 C   0  0  0  0  0  0  0  0  0  0  0  0
    5.4373   54.2521    2.6884 C   0  0  0  0  0  0  0  0  0  0  0  0
    4.8427   53.1036    1.8496 C   0  0  0  0  0  0  0  0  0  0  0  0
    5.3263   53.0824    0.3874 C   0  0  0  0  0  0  0  0  0  0  0  0
    5.9257   54.4120   -0.0572 C   0  0  0  0  0  0  0  0  0  0  0  0
    4.9696   51.7236    2.5274 C   0  0  0  0  0  0  0  0  0  0  0  0
    3.7496   50.9111    2.4295 C   0  0  0  0  0  0  0  0  0  0  0  0
    2.7950   50.2593    2.3317 N   0  0  0  0  0  0  0  0  0  0  0  0
    9.6228   53.6579    0.2826 C   0  0  0  0  0  0  0  0  0  0  0  0
   10.2150   55.0520    0.1385 C   0  0  0  0  0  0  0  0  0  0  0  0
   10.9717   55.1002   -1.0724 O   0  0  0  0  0  0  0  0  0  0  0  0
   10.3874   54.9227   -1.8261 H   0  0  0  0  0  0  0  0  0  0  0  0
 24 23  1  0
 24 25  1  0
 24  1  1  0
  1  2  2  0
  2  3  1  0
  3  4  2  0
  4  5  1  0
  5  6  2  0
  6  7  1  0
  7  8  1  0
  8  9  2  0
  9 10  1  0
 10 11  2  0
 11 12  1  0
 14 12  1  0
 14 15  1  0
 15 16  1  0
 16 17  1  0
 17 20  1  0
 20 21  1  0
 21 22  3  0
 17 18  1  0
 18 19  1  0
 12  1  1  0
 19 14  1  0
 11  3  1  0
 10  6  1  0
 25 26  1  0
  7 13  1  0
M  END
> <minimizedAffinity>
-9.43144

> <CNNscore>
0.9631761312

> <CNNaffinity>
7.6622128487

> <CNN_VS>
7.3800606728

> <CNNaffinity_variance>
0.1312238425

$$$$



 26 29  0  0  0  0  0  0  0  0999 V2000
    4.8051   58.2641    0.7277 C   0  0  0  0  0  0  0  0  0  0  0  0
    5.1870   59.4107    0.1821 N   0  0  0  0  0  0  0  0  0  0  0  0
    6.4655   59.2087   -0.2548 C   0  0  0  0  0  0  0  0  0  0  0  0
    7.3645   60.0620   -0.9196 C   0  0  0  0  0  0  0  0  0  0  0  0
    8.6085   59.6604   -1.3189 N   0  0  0  0  0  0  0  0  0  0  0  0
    8.8994   58.3774   -1.0457 C   0  0  0  0  0  0  0  0  0  0  0  0
   10.0512   57.7139   -1.3598 N   0  0  0  0  0  0  0  0  0  0  0  0
    9.9544   56.4028   -0.9462 C   0  0  0  0  0  0  0  0  0  0  0  0
    8.7206   56.2187   -0.3422 C   0  0  0  0  0  0  0  0  0  0  0  0
    8.0776   57.4806   -0.3976 C   0  0  0  0  0  0  0  0  0  0  0  0
    6.8518   57.9109    0.0244 C   0  0  0  0  0  0  0  0  0  0  0  0
    5.8355   57.3227    0.7033 N   0  0  0  0  0  0  0  0  0  0  0  0
   10.8304   58.1110   -1.8119 H   0  0  0  0  0  0  0  0  0  0  0  0
    5.8034   55.9826    1.2836 C   0  0  0  0  0  0  0  0  0  0  0  0
    5.8003   54.8172    0.2709 C   0  0  0  0  0  0  0  0  0  0  0  0
    6.8208   53.7175    0.5710 C   0  0  0  0  0  0  0  0  0  0  0  0
    6.9240   53.2908    2.0487 C   0  0  0  0  0  0  0  0  0  0  0  0
    6.6818   54.4371    3.0484 C   0  0  0  0  0  0  0  0  0  0  0  0
    6.8265   55.8161    2.4143 C   0  0  0  0  0  0  0  0  0  0  0  0
    6.0879   52.0379    2.3820 C   0  0  0  0  0  0  0  0  0  0  0  0
    4.8656   51.9206    1.5754 C   0  0  0  0  0  0  0  0  0  0  0  0
    3.8911   51.8131    0.9556 N   0  0  0  0  0  0  0  0  0  0  0  0
    3.1628   56.5980    1.6207 C   0  0  0  0  0  0  0  0  0  0  0  0
    3.4115   58.0483    1.2339 C   0  0  0  0  0  0  0  0  0  0  0  0
    3.2817   58.8582    2.4037 O   0  0  0  0  0  0  0  0  0  0  0  0
    3.9417   58.5858    3.0604 H   0  0  0  0  0  0  0  0  0  0  0  0
 24 23  1  0
 24 25  1  0
 24  1  1  0
  1  2  2  0
  2  3  1  0
  3  4  2  0
  4  5  1  0
  5  6  2  0
  6  7  1  0
  7  8  1  0
  8  9  2  0
  9 10  1  0
 10 11  2  0
 11 12  1  0
 14 12  1  0
 14 15  1  0
 15 16  1  0
 16 17  1  0
 17 20  1  0
 20 21  1  0
 21 22  3  0
 17 18  1  0
 18 19  1  0
 12  1  1  0
 19 14  1  0
 11  3  1  0
 10  6  1  0
 25 26  1  0
  7 13  1  0
M  END
> <minimizedAffinity>
-8.41145

> <CNNscore>
0.8498569131

> <CNNaffinity>
7.4186949730

> <CNN_VS>
6.3048291206

> <CNNaffinity_variance>
0.1085178927

$$$$



 26 29  0  0  0  0  0  0  0  0999 V2000
    4.7598   56.7804    1.5338 C   0  0  0  0  0  0  0  0  0  0  0  0
    4.2032   57.9721    1.3665 N   0  0  0  0  0  0  0  0  0  0  0  0
    5.1217   58.7210    0.6868 C   0  0  0  0  0  0  0  0  0  0  0  0
    5.0769   60.0485    0.2242 C   0  0  0  0  0  0  0  0  0  0  0  0
    6.0963   60.6201   -0.4845 N   0  0  0  0  0  0  0  0  0  0  0  0
    7.1388   59.8070   -0.7245 C   0  0  0  0  0  0  0  0  0  0  0  0
    8.2681   60.1099   -1.4306 N   0  0  0  0  0  0  0  0  0  0  0  0
    9.0857   59.0019   -1.4882 C   0  0  0  0  0  0  0  0  0  0  0  0
    8.4783   57.9666   -0.7954 C   0  0  0  0  0  0  0  0  0  0  0  0
    7.2601   58.4999   -0.3048 C   0  0  0  0  0  0  0  0  0  0  0  0
    6.2457   57.9576    0.4318 C   0  0  0  0  0  0  0  0  0  0  0  0
    6.0567   56.7494    1.0185 N   0  0  0  0  0  0  0  0  0  0  0  0
    8.4673   60.9847   -1.8359 H   0  0  0  0  0  0  0  0  0  0  0  0
    6.9965   55.6337    1.0944 C   0  0  0  0  0  0  0  0  0  0  0  0
    7.1811   55.0113    2.4952 C   0  0  0  0  0  0  0  0  0  0  0  0
    7.0850   53.4846    2.5252 C   0  0  0  0  0  0  0  0  0  0  0  0
    7.8211   52.7491    1.3879 C   0  0  0  0  0  0  0  0  0  0  0  0
    7.8275   53.5135    0.0508 C   0  0  0  0  0  0  0  0  0  0  0  0
    6.7605   54.6007   -0.0147 C   0  0  0  0  0  0  0  0  0  0  0  0
    9.2282   52.2593    1.7880 C   0  0  0  0  0  0  0  0  0  0  0  0
   10.2861   53.2433    1.5218 C   0  0  0  0  0  0  0  0  0  0  0  0
   11.1054   54.0383    1.3164 N   0  0  0  0  0  0  0  0  0  0  0  0
    2.5473   55.9586    2.3708 C   0  0  0  0  0  0  0  0  0  0  0  0
    4.0175   55.6344    2.1510 C   0  0  0  0  0  0  0  0  0  0  0  0
    4.1094   54.5526    1.2223 O   0  0  0  0  0  0  0  0  0  0  0  0
    3.7117   54.8167    0.3780 H   0  0  0  0  0  0  0  0  0  0  0  0
 24 23  1  0
 24 25  1  0
 24  1  1  0
  1  2  2  0
  2  3  1  0
  3  4  2  0
  4  5  1  0
  5  6  2  0
  6  7  1  0
  7  8  1  0
  8  9  2  0
  9 10  1  0
 10 11  2  0
 11 12  1  0
 14 12  1  0
 14 15  1  0
 15 16  1  0
 16 17  1  0
 17 20  1  0
 20 21  1  0
 21 22  3  0
 17 18  1  0
 18 19  1  0
 12  1  1  0
 19 14  1  0
 11  3  1  0
 10  6  1  0
 25 26  1  0
  7 13  1  0
M  END
> <minimizedAffinity>
-7.65399

> <CNNscore>
0.7757327557

> <CNNaffinity>
7.4078140259

> <CNN_VS>
5.7464838028

> <CNNaffinity_variance>
0.0967494920

$$$$



 26 29  0  0  0  0  0  0  0  0999 V2000
    4.7179   54.9957    1.5777 C   0  0  0  0  0  0  0  0  0  0  0  0
    3.7851   55.9030    1.8323 N   0  0  0  0  0  0  0  0  0  0  0  0
    4.2910   57.0927    1.3908 C   0  0  0  0  0  0  0  0  0  0  0  0
    3.7448   58.3888    1.3868 C   0  0  0  0  0  0  0  0  0  0  0  0
    4.3980   59.4656    0.8557 N   0  0  0  0  0  0  0  0  0  0  0  0
    5.5966   59.1860    0.3167 C   0  0  0  0  0  0  0  0  0  0  0  0
    6.4400   60.0627   -0.3042 N   0  0  0  0  0  0  0  0  0  0  0  0
    7.5536   59.3881   -0.7562 C   0  0  0  0  0  0  0  0  0  0  0  0
    7.4329   58.0516   -0.4097 C   0  0  0  0  0  0  0  0  0  0  0  0
    6.2008   57.9477    0.2832 C   0  0  0  0  0  0  0  0  0  0  0  0
    5.5472   56.8908    0.8501 C   0  0  0  0  0  0  0  0  0  0  0  0
    5.8562   55.5811    1.0208 N   0  0  0  0  0  0  0  0  0  0  0  0
    6.2775   61.0277   -0.4123 H   0  0  0  0  0  0  0  0  0  0  0  0
    7.1072   54.9051    0.6868 C   0  0  0  0  0  0  0  0  0  0  0  0
    8.0555   55.6824   -0.2514 C   0  0  0  0  0  0  0  0  0  0  0  0
    9.5073   55.7432    0.2275 C   0  0  0  0  0  0  0  0  0  0  0  0
   10.0816   54.4236    0.7799 C   0  0  0  0  0  0  0  0  0  0  0  0
    9.0455   53.5483    1.5098 C   0  0  0  0  0  0  0  0  0  0  0  0
    7.8017   54.3259    1.9258 C   0  0  0  0  0  0  0  0  0  0  0  0
   10.8896   53.6253   -0.2639 C   0  0  0  0  0  0  0  0  0  0  0  0
   11.5473   52.4355    0.2929 C   0  0  0  0  0  0  0  0  0  0  0  0
   12.0866   51.5095    0.7371 N   0  0  0  0  0  0  0  0  0  0  0  0
    4.9673   52.6811    0.6551 C   0  0  0  0  0  0  0  0  0  0  0  0
    4.4956   53.5344    1.8231 C   0  0  0  0  0  0  0  0  0  0  0  0
    5.2746   53.1996    2.9730 O   0  0  0  0  0  0  0  0  0  0  0  0
    6.2094   53.3894    2.7967 H   0  0  0  0  0  0  0  0  0  0  0  0
 24 23  1  0
 24 25  1  0
 24  1  1  0
  1  2  2  0
  2  3  1  0
  3  4  2  0
  4  5  1  0
  5  6  2  0
  6  7  1  0
  7  8  1  0
  8  9  2  0
  9 10  1  0
 10 11  2  0
 11 12  1  0
 14 12  1  0
 14 15  1  0
 15 16  1  0
 16 17  1  0
 17 20  1  0
 20 21  1  0
 21 22  3  0
 17 18  1  0
 18 19  1  0
 12  1  1  0
 19 14  1  0
 11  3  1  0
 10  6  1  0
 25 26  1  0
  7 13  1  0
M  END
> <minimizedAffinity>
-8.10799

> <CNNscore>
0.6620272994

> <CNNaffinity>
7.1985855103

> <CNN_VS>
4.7656602859

> <CNNaffinity_variance>
0.0318963975

$$$$



 26 29  0  0  0  0  0  0  0  0999 V2000
    5.9014   56.5424    1.4648 C   0  0  0  0  0  0  0  0  0  0  0  0
    5.3974   57.7668    1.5363 N   0  0  0  0  0  0  0  0  0  0  0  0
    6.1775   58.5397    0.7237 C   0  0  0  0  0  0  0  0  0  0  0  0
    6.1099   59.9066    0.3994 C   0  0  0  0  0  0  0  0  0  0  0  0
    6.9701   60.5020   -0.4803 N   0  0  0  0  0  0  0  0  0  0  0  0
    7.8746   59.6739   -1.0295 C   0  0  0  0  0  0  0  0  0  0  0  0
    8.8250   59.9972   -1.9556 N   0  0  0  0  0  0  0  0  0  0  0  0
    9.5351   58.8673   -2.2999 C   0  0  0  0  0  0  0  0  0  0  0  0
    9.0419   57.7954   -1.5728 C   0  0  0  0  0  0  0  0  0  0  0  0
    8.0077   58.3282   -0.7632 C   0  0  0  0  0  0  0  0  0  0  0  0
    7.1608   57.7591    0.1449 C   0  0  0  0  0  0  0  0  0  0  0  0
    7.0379   56.5083    0.6550 N   0  0  0  0  0  0  0  0  0  0  0  0
    8.9790   60.8984   -2.3209 H   0  0  0  0  0  0  0  0  0  0  0  0
    7.8973   55.3528    0.4102 C   0  0  0  0  0  0  0  0  0  0  0  0
    9.3549   55.4899    0.9004 C   0  0  0  0  0  0  0  0  0  0  0  0
    9.8623   54.2973    1.7134 C   0  0  0  0  0  0  0  0  0  0  0  0
    9.4946   52.9077    1.1566 C   0  0  0  0  0  0  0  0  0  0  0  0
    8.1250   52.8585    0.4538 C   0  0  0  0  0  0  0  0  0  0  0  0
    7.2281   54.0354    0.8220 C   0  0  0  0  0  0  0  0  0  0  0  0
   10.6133   52.2771    0.3016 C   0  0  0  0  0  0  0  0  0  0  0  0
   10.1603   51.1317   -0.4990 C   0  0  0  0  0  0  0  0  0  0  0  0
    9.7967   50.2155   -1.1105 N   0  0  0  0  0  0  0  0  0  0  0  0
    5.9514   55.0068    3.4422 C   0  0  0  0  0  0  0  0  0  0  0  0
    5.2527   55.3735    2.1413 C   0  0  0  0  0  0  0  0  0  0  0  0
    3.9160   55.7780    2.4429 O   0  0  0  0  0  0  0  0  0  0  0  0
    3.9365   56.5547    3.0235 H   0  0  0  0  0  0  0  0  0  0  0  0
 24 23  1  0
 24 25  1  0
 24  1  1  0
  1  2  2  0
  2  3  1  0
  3  4  2  0
  4  5  1  0
  5  6  2  0
  6  7  1  0
  7  8  1  0
  8  9  2  0
  9 10  1  0
 10 11  2  0
 11 12  1  0
 14 12  1  0
 14 15  1  0
 15 16  1  0
 16 17  1  0
 17 20  1  0
 20 21  1  0
 21 22  3  0
 17 18  1  0
 18 19  1  0
 12  1  1  0
 19 14  1  0
 11  3  1  0
 10  6  1  0
 25 26  1  0
  7 13  1  0
M  END
> <minimizedAffinity>
-7.35632

> <CNNscore>
0.6357226372

> <CNNaffinity>
6.6931967735

> <CNN_VS>
4.2550168037

> <CNNaffinity_variance>
0.0208844077

$$$$



 26 29  0  0  0  0  0  0  0  0999 V2000
    8.2977   56.8484   -0.3854 C   0  0  0  0  0  0  0  0  0  0  0  0
    7.7416   58.0304   -0.6129 N   0  0  0  0  0  0  0  0  0  0  0  0
    6.4749   57.9506   -0.1075 C   0  0  0  0  0  0  0  0  0  0  0  0
    5.4368   58.8980   -0.0519 C   0  0  0  0  0  0  0  0  0  0  0  0
    4.2319   58.6417    0.5403 N   0  0  0  0  0  0  0  0  0  0  0  0
    4.1227   57.4187    1.0859 C   0  0  0  0  0  0  0  0  0  0  0  0
    3.0472   56.9165    1.7617 N   0  0  0  0  0  0  0  0  0  0  0  0
    3.3339   55.6418    2.2005 C   0  0  0  0  0  0  0  0  0  0  0  0
    4.6152   55.3094    1.7895 C   0  0  0  0  0  0  0  0  0  0  0  0
    5.0889   56.4360    1.0715 C   0  0  0  0  0  0  0  0  0  0  0  0
    6.2735   56.6992    0.4446 C   0  0  0  0  0  0  0  0  0  0  0  0
    7.3951   55.9709    0.2178 N   0  0  0  0  0  0  0  0  0  0  0  0
    2.1982   57.3916    1.9122 H   0  0  0  0  0  0  0  0  0  0  0  0
    7.6314   54.5661    0.5410 C   0  0  0  0  0  0  0  0  0  0  0  0
    8.9298   53.9591   -0.0327 C   0  0  0  0  0  0  0  0  0  0  0  0
    9.7685   53.1847    0.9861 C   0  0  0  0  0  0  0  0  0  0  0  0
    8.9792   52.2534    1.9272 C   0  0  0  0  0  0  0  0  0  0  0  0
    7.5777   52.7769    2.2934 C   0  0  0  0  0  0  0  0  0  0  0  0
    7.4163   54.2701    2.0306 C   0  0  0  0  0  0  0  0  0  0  0  0
    8.9491   50.7865    1.4503 C   0  0  0  0  0  0  0  0  0  0  0  0
   10.2404   50.3150    0.9322 C   0  0  0  0  0  0  0  0  0  0  0  0
   11.2580   49.9585    0.5045 N   0  0  0  0  0  0  0  0  0  0  0  0
   10.2126   57.3502   -1.9190 C   0  0  0  0  0  0  0  0  0  0  0  0
    9.7353   56.5703   -0.7029 C   0  0  0  0  0  0  0  0  0  0  0  0
   10.4858   57.0000    0.4344 O   0  0  0  0  0  0  0  0  0  0  0  0
   10.3341   57.9464    0.5831 H   0  0  0  0  0  0  0  0  0  0  0  0
 24 23  1  0
 24 25  1  0
 24  1  1  0
  1  2  2  0
  2  3  1  0
  3  4  2  0
  4  5  1  0
  5  6  2  0
  6  7  1  0
  7  8  1  0
  8  9  2  0
  9 10  1  0
 10 11  2  0
 11 12  1  0
 14 12  1  0
 14 15  1  0
 15 16  1  0
 16 17  1  0
 17 20  1  0
 20 21  1  0
 21 22  3  0
 17 18  1  0
 18 19  1  0
 12  1  1  0
 19 14  1  0
 11  3  1  0
 10  6  1  0
 25 26  1  0
  7 13  1  0
M  END
> <minimizedAffinity>
-7.56724

> <CNNscore>
0.4200563729

> <CNNaffinity>
6.6591873169

> <CNN_VS>
2.7972340584

> <CNNaffinity_variance>
0.0337735675

$$$$



 26 29  0  0  0  0  0  0  0  0999 V2000
    5.0379   55.2817    0.9648 C   0  0  0  0  0  0  0  0  0  0  0  0
    3.9227   55.7406    1.5161 N   0  0  0  0  0  0  0  0  0  0  0  0
    3.9933   57.1018    1.4237 C   0  0  0  0  0  0  0  0  0  0  0  0
    3.0953   58.1068    1.8260 C   0  0  0  0  0  0  0  0  0  0  0  0
    3.3263   59.4362    1.6083 N   0  0  0  0  0  0  0  0  0  0  0  0
    4.4707   59.7088    0.9592 C   0  0  0  0  0  0  0  0  0  0  0  0
    4.9284   60.9411    0.5883 N   0  0  0  0  0  0  0  0  0  0  0  0
    6.1200   60.8041   -0.0907 C   0  0  0  0  0  0  0  0  0  0  0  0
    6.4445   59.4579   -0.1489 C   0  0  0  0  0  0  0  0  0  0  0  0
    5.4016   58.7849    0.5355 C   0  0  0  0  0  0  0  0  0  0  0  0
    5.1691   57.4639    0.7932 C   0  0  0  0  0  0  0  0  0  0  0  0
    5.8688   56.3263    0.5563 N   0  0  0  0  0  0  0  0  0  0  0  0
    4.4769   61.7954    0.7770 H   0  0  0  0  0  0  0  0  0  0  0  0
    7.2067   56.2006   -0.0164 C   0  0  0  0  0  0  0  0  0  0  0  0
    7.4740   57.0479   -1.2791 C   0  0  0  0  0  0  0  0  0  0  0  0
    8.7752   57.8516   -1.2362 C   0  0  0  0  0  0  0  0  0  0  0  0
   10.0044   57.0989   -0.6895 C   0  0  0  0  0  0  0  0  0  0  0  0
    9.6715   56.0762    0.4130 C   0  0  0  0  0  0  0  0  0  0  0  0
    8.3056   56.3136    1.0477 C   0  0  0  0  0  0  0  0  0  0  0  0
   10.8933   56.4961   -1.7969 C   0  0  0  0  0  0  0  0  0  0  0  0
   11.0620   57.3822   -2.9565 C   0  0  0  0  0  0  0  0  0  0  0  0
   11.2186   58.0744   -3.8740 N   0  0  0  0  0  0  0  0  0  0  0  0
    6.7407   53.4475    1.0456 C   0  0  0  0  0  0  0  0  0  0  0  0
    5.2892   53.8165    0.7776 C   0  0  0  0  0  0  0  0  0  0  0  0
    4.4668   53.1450    1.7336 O   0  0  0  0  0  0  0  0  0  0  0  0
    4.7090   53.4330    2.6276 H   0  0  0  0  0  0  0  0  0  0  0  0
 24 23  1  0
 24 25  1  0
 24  1  1  0
  1  2  2  0
  2  3  1  0
  3  4  2  0
  4  5  1  0
  5  6  2  0
  6  7  1  0
  7  8  1  0
  8  9  2  0
  9 10  1  0
 10 11  2  0
 11 12  1  0
 14 12  1  0
 14 15  1  0
 15 16  1  0
 16 17  1  0
 17 20  1  0
 20 21  1  0
 21 22  3  0
 17 18  1  0
 18 19  1  0
 12  1  1  0
 19 14  1  0
 11  3  1  0
 10  6  1  0
 25 26  1  0
  7 13  1  0
M  END
> <minimizedAffinity>
-7.86929

> <CNNscore>
0.3750534952

> <CNNaffinity>
6.7253994942

> <CNN_VS>
2.5223846436

> <CNNaffinity_variance>
0.1617855579

$$$$



 26 29  0  0  0  0  0  0  0  0999 V2000
    6.5509   51.2157    2.9929 C   0  0  0  0  0  0  0  0  0  0  0  0
    7.4438   50.2357    2.9773 N   0  0  0  0  0  0  0  0  0  0  0  0
    8.5212   50.7231    2.2932 C   0  0  0  0  0  0  0  0  0  0  0  0
    9.7614   50.1393    1.9778 C   0  0  0  0  0  0  0  0  0  0  0  0
   10.7464   50.8104    1.3087 N   0  0  0  0  0  0  0  0  0  0  0  0
   10.4462   52.0815    0.9934 C   0  0  0  0  0  0  0  0  0  0  0  0
   11.2541   52.9802    0.3570 N   0  0  0  0  0  0  0  0  0  0  0  0
   10.6021   54.1897    0.2498 C   0  0  0  0  0  0  0  0  0  0  0  0
    9.3436   54.0664    0.8172 C   0  0  0  0  0  0  0  0  0  0  0  0
    9.2571   52.7239    1.2634 C   0  0  0  0  0  0  0  0  0  0  0  0
    8.2722   52.0255    1.9021 C   0  0  0  0  0  0  0  0  0  0  0  0
    7.0053   52.3273    2.2812 N   0  0  0  0  0  0  0  0  0  0  0  0
   12.1622   52.7929    0.0259 H   0  0  0  0  0  0  0  0  0  0  0  0
    6.2609   53.5565    2.0194 C   0  0  0  0  0  0  0  0  0  0  0  0
    6.5838   54.7433    2.9526 C   0  0  0  0  0  0  0  0  0  0  0  0
    6.8493   56.0635    2.2261 C   0  0  0  0  0  0  0  0  0  0  0  0
    5.8839   56.3927    1.0703 C   0  0  0  0  0  0  0  0  0  0  0  0
    5.3846   55.1551    0.3014 C   0  0  0  0  0  0  0  0  0  0  0  0
    6.2555   53.9248    0.5304 C   0  0  0  0  0  0  0  0  0  0  0  0
    4.7294   57.3273    1.4868 C   0  0  0  0  0  0  0  0  0  0  0  0
    4.8372   58.6773    0.9173 C   0  0  0  0  0  0  0  0  0  0  0  0
    4.9345   59.7503    0.4878 N   0  0  0  0  0  0  0  0  0  0  0  0
    4.1548   50.4939    2.9007 C   0  0  0  0  0  0  0  0  0  0  0  0
    5.2610   51.1059    3.7473 C   0  0  0  0  0  0  0  0  0  0  0  0
    5.5179   50.2387    4.8533 O   0  0  0  0  0  0  0  0  0  0  0  0
    5.8093   49.3737    4.5250 H   0  0  0  0  0  0  0  0  0  0  0  0
 24 23  1  0
 24 25  1  0
 24  1  1  0
  1  2  2  0
  2  3  1  0
  3  4  2  0
  4  5  1  0
  5  6  2  0
  6  7  1  0
  7  8  1  0
  8  9  2  0
  9 10  1  0
 10 11  2  0
 11 12  1  0
 14 12  1  0
 14 15  1  0
 15 16  1  0
 16 17  1  0
 17 20  1  0
 20 21  1  0
 21 22  3  0
 17 18  1  0
 18 19  1  0
 12  1  1  0
 19 14  1  0
 11  3  1  0
 10  6  1  0
 25 26  1  0
  7 13  1  0
M  END
> <minimizedAffinity>
-7.97646

> <CNNscore>
0.3206504583

> <CNNaffinity>
6.4991765022

> <CNN_VS>
2.0839638710

> <CNNaffinity_variance>
0.0662589967

$$$$
