


 28 29  0  0  0  0  0  0  0  0999 V2000
  -24.3995    7.4700  -13.3832 C   0  0  0  0  0  0  0  0  0  0  0  0
  -23.3633    8.0782  -12.6585 C   0  0  0  0  0  0  0  0  0  0  0  0
  -22.1011    8.1967  -13.2300 C   0  0  0  0  0  0  0  0  0  0  0  0
  -20.7126    9.0425  -12.2667 Br  0  0  0  0  0  0  0  0  0  0  0  0
  -21.8554    7.6979  -14.5053 C   0  0  0  0  0  0  0  0  0  0  0  0
  -22.8720    7.0430  -15.2101 C   0  0  0  0  0  0  0  0  0  0  0  0
  -24.1469    6.8979  -14.6530 C   0  0  0  0  0  0  0  0  0  0  0  0
  -27.2083   11.9939  -13.9689 C   0  0  0  0  0  0  0  0  0  0  0  0
  -27.4984   10.6647  -13.2740 C   0  0  0  0  0  0  0  0  0  0  0  0
  -28.1721   10.8949  -11.9125 C   0  0  0  0  0  0  0  0  0  0  0  0
  -28.1470    9.6544  -11.0003 C   0  0  0  0  0  0  0  0  0  0  0  0
  -27.2394    9.8822   -9.7854 C   0  0  0  0  0  0  0  0  0  0  0  0
  -27.7375    8.3865  -11.7579 C   0  0  0  0  0  0  0  0  0  0  0  0
  -26.4727    8.5365  -12.4759 N   0  0  0  0  0  0  0  0  0  0  0  0
  -25.7587    7.3751  -12.7775 C   0  0  0  0  0  0  0  0  0  0  0  0
  -26.2219    6.2450  -12.6015 O   0  0  0  0  0  0  0  0  0  0  0  0
  -26.2196    9.8368  -13.1127 C   0  0  0  0  0  0  0  0  0  0  0  0
  -25.1830    6.1734  -15.2950 N   0  0  0  0  0  0  0  0  0  0  0  0
  -25.9616    6.5531  -16.3664 C   0  0  0  0  0  0  0  0  0  0  0  0
  -25.9686    7.6428  -16.9254 O   0  0  0  0  0  0  0  0  0  0  0  0
  -25.3711    5.2802  -14.9260 H   0  0  0  0  0  0  0  0  0  0  0  0
  -26.8622    5.4178  -16.8310 C   0  0  0  0  0  0  0  0  0  0  0  0
  -27.5463    4.7224  -15.6499 C   0  0  0  0  0  0  0  0  0  0  0  0
  -29.0165    4.4018  -15.9164 C   0  0  0  0  0  0  0  0  0  0  0  0
  -29.2887    2.9417  -16.3318 N   0  0  0  0  0  0  0  0  0  0  0  0
  -29.2253    2.7442  -17.8402 C   0  0  0  0  0  0  0  0  0  0  0  0
  -28.2041    2.0666  -15.6902 C   0  0  0  0  0  0  0  0  0  0  0  0
  -30.6441    2.4621  -15.8107 C   0  0  0  0  0  0  0  0  0  0  0  0
  9  8  1  0
  9 10  1  0
 10 11  1  0
 11 12  1  0
 11 13  1  0
 13 14  1  0
 14 15  1  0
 15 16  2  0
 15  1  1  0
  1  2  2  0
  2  3  1  0
  3  4  1  0
  3  5  2  0
  5  6  1  0
  6  7  2  0
  7 18  1  0
 18 19  1  0
 19 20  2  0
 19 22  1  0
 22 23  1  0
 23 24  1  0
 24 25  1  0
 25 26  1  0
 25 27  1  0
 25 28  1  0
 14 17  1  0
 17  9  1  0
  7  1  1  0
 18 21  1  0
M  CHG 1  25   1
M  END
> <minimizedAffinity>
-5.74835

> <CNNscore>
0.8578234911

> <CNNaffinity>
5.8212451935

> <CNN_VS>
4.9936008453

> <CNNaffinity_variance>
0.1434099227

$$$$



 28 29  0  0  0  0  0  0  0  0999 V2000
  -24.1531    8.9513  -14.0017 C   0  0  0  0  0  0  0  0  0  0  0  0
  -22.9911    9.4865  -13.4254 C   0  0  0  0  0  0  0  0  0  0  0  0
  -21.8920    8.6643  -13.2021 C   0  0  0  0  0  0  0  0  0  0  0  0
  -20.3161    9.3904  -12.4536 Br  0  0  0  0  0  0  0  0  0  0  0  0
  -21.9456    7.3126  -13.5270 C   0  0  0  0  0  0  0  0  0  0  0  0
  -23.1211    6.7637  -14.0525 C   0  0  0  0  0  0  0  0  0  0  0  0
  -24.2458    7.5654  -14.2742 C   0  0  0  0  0  0  0  0  0  0  0  0
  -27.1863    9.6969   -9.6495 C   0  0  0  0  0  0  0  0  0  0  0  0
  -27.3001   10.1695  -11.0976 C   0  0  0  0  0  0  0  0  0  0  0  0
  -28.7487   10.0578  -11.5972 C   0  0  0  0  0  0  0  0  0  0  0  0
  -28.8758   10.1468  -13.1294 C   0  0  0  0  0  0  0  0  0  0  0  0
  -29.3232    8.8059  -13.7239 C   0  0  0  0  0  0  0  0  0  0  0  0
  -27.5813   10.6328  -13.7907 C   0  0  0  0  0  0  0  0  0  0  0  0
  -26.4139    9.8413  -13.4053 N   0  0  0  0  0  0  0  0  0  0  0  0
  -25.3164    9.8451  -14.2685 C   0  0  0  0  0  0  0  0  0  0  0  0
  -25.2395   10.5978  -15.2433 O   0  0  0  0  0  0  0  0  0  0  0  0
  -26.3506    9.3859  -12.0092 C   0  0  0  0  0  0  0  0  0  0  0  0
  -25.4815    7.0390  -14.7287 N   0  0  0  0  0  0  0  0  0  0  0  0
  -26.3141    6.1369  -14.1030 C   0  0  0  0  0  0  0  0  0  0  0  0
  -26.1020    5.5390  -13.0555 O   0  0  0  0  0  0  0  0  0  0  0  0
  -25.7848    7.3608  -15.6083 H   0  0  0  0  0  0  0  0  0  0  0  0
  -27.6117    5.9478  -14.8753 C   0  0  0  0  0  0  0  0  0  0  0  0
  -27.3622    5.8681  -16.3846 C   0  0  0  0  0  0  0  0  0  0  0  0
  -26.6089    4.6047  -16.7989 C   0  0  0  0  0  0  0  0  0  0  0  0
  -25.6831    4.7821  -18.0195 N   0  0  0  0  0  0  0  0  0  0  0  0
  -26.2338    4.1105  -19.2702 C   0  0  0  0  0  0  0  0  0  0  0  0
  -25.5654    6.2861  -18.2983 C   0  0  0  0  0  0  0  0  0  0  0  0
  -24.2790    4.2497  -17.7305 C   0  0  0  0  0  0  0  0  0  0  0  0
  9  8  1  0
  9 10  1  0
 10 11  1  0
 11 12  1  0
 11 13  1  0
 13 14  1  0
 14 15  1  0
 15 16  2  0
 15  1  1  0
  1  2  2  0
  2  3  1  0
  3  4  1  0
  3  5  2  0
  5  6  1  0
  6  7  2  0
  7 18  1  0
 18 19  1  0
 19 20  2  0
 19 22  1  0
 22 23  1  0
 23 24  1  0
 24 25  1  0
 25 26  1  0
 25 27  1  0
 25 28  1  0
 14 17  1  0
 17  9  1  0
  7  1  1  0
 18 21  1  0
M  CHG 1  25   1
M  END
> <minimizedAffinity>
-6.55573

> <CNNscore>
0.8010909557

> <CNNaffinity>
5.2739596367

> <CNN_VS>
4.2249212265

> <CNNaffinity_variance>
0.3104169369

$$$$



 28 29  0  0  0  0  0  0  0  0999 V2000
  -24.1101    9.1466  -14.1018 C   0  0  0  0  0  0  0  0  0  0  0  0
  -22.9673    9.5572  -13.3988 C   0  0  0  0  0  0  0  0  0  0  0  0
  -21.9141    8.6674  -13.2170 C   0  0  0  0  0  0  0  0  0  0  0  0
  -20.3623    9.2286  -12.2964 Br  0  0  0  0  0  0  0  0  0  0  0  0
  -21.9960    7.3688  -13.7093 C   0  0  0  0  0  0  0  0  0  0  0  0
  -23.1558    6.9389  -14.3645 C   0  0  0  0  0  0  0  0  0  0  0  0
  -24.2353    7.8093  -14.5486 C   0  0  0  0  0  0  0  0  0  0  0  0
  -27.2064    9.7068   -9.7662 C   0  0  0  0  0  0  0  0  0  0  0  0
  -27.2626   10.2944  -11.1751 C   0  0  0  0  0  0  0  0  0  0  0  0
  -28.7026   10.2941  -11.7108 C   0  0  0  0  0  0  0  0  0  0  0  0
  -28.7887   10.5069  -13.2336 C   0  0  0  0  0  0  0  0  0  0  0  0
  -29.2863    9.2398  -13.9396 C   0  0  0  0  0  0  0  0  0  0  0  0
  -27.4568   10.9766  -13.8290 C   0  0  0  0  0  0  0  0  0  0  0  0
  -26.3386   10.1004  -13.4832 N   0  0  0  0  0  0  0  0  0  0  0  0
  -25.2220   10.1154  -14.3213 C   0  0  0  0  0  0  0  0  0  0  0  0
  -25.0856   10.9360  -15.2328 O   0  0  0  0  0  0  0  0  0  0  0  0
  -26.3307    9.5364  -12.1258 C   0  0  0  0  0  0  0  0  0  0  0  0
  -25.4588    7.3957  -15.1340 N   0  0  0  0  0  0  0  0  0  0  0  0
  -25.7819    7.2933  -16.4695 C   0  0  0  0  0  0  0  0  0  0  0  0
  -25.0922    7.6284  -17.4244 O   0  0  0  0  0  0  0  0  0  0  0  0
  -26.1723    7.1489  -14.5022 H   0  0  0  0  0  0  0  0  0  0  0  0
  -27.1581    6.6736  -16.6640 C   0  0  0  0  0  0  0  0  0  0  0  0
  -27.1240    5.5375  -17.6910 C   0  0  0  0  0  0  0  0  0  0  0  0
  -25.7123    5.2189  -18.1817 C   0  0  0  0  0  0  0  0  0  0  0  0
  -25.3666    3.7161  -18.2064 N   0  0  0  0  0  0  0  0  0  0  0  0
  -23.8992    3.4514  -17.8977 C   0  0  0  0  0  0  0  0  0  0  0  0
  -26.2126    3.0273  -17.1278 C   0  0  0  0  0  0  0  0  0  0  0  0
  -25.7262    3.0881  -19.5535 C   0  0  0  0  0  0  0  0  0  0  0  0
  9  8  1  0
  9 10  1  0
 10 11  1  0
 11 12  1  0
 11 13  1  0
 13 14  1  0
 14 15  1  0
 15 16  2  0
 15  1  1  0
  1  2  2  0
  2  3  1  0
  3  4  1  0
  3  5  2  0
  5  6  1  0
  6  7  2  0
  7 18  1  0
 18 19  1  0
 19 20  2  0
 19 22  1  0
 22 23  1  0
 23 24  1  0
 24 25  1  0
 25 26  1  0
 25 27  1  0
 25 28  1  0
 14 17  1  0
 17  9  1  0
  7  1  1  0
 18 21  1  0
M  CHG 1  25   1
M  END
> <minimizedAffinity>
-6.74065

> <CNNscore>
0.7477240562

> <CNNaffinity>
5.5809168816

> <CNN_VS>
4.1729860306

> <CNNaffinity_variance>
0.1903444976

$$$$



 28 29  0  0  0  0  0  0  0  0999 V2000
  -24.0672    9.1852  -14.1156 C   0  0  0  0  0  0  0  0  0  0  0  0
  -22.9558    9.5568  -13.3439 C   0  0  0  0  0  0  0  0  0  0  0  0
  -21.9102    8.6574  -13.1649 C   0  0  0  0  0  0  0  0  0  0  0  0
  -20.3995    9.1674  -12.1508 Br  0  0  0  0  0  0  0  0  0  0  0  0
  -21.9697    7.3867  -13.7282 C   0  0  0  0  0  0  0  0  0  0  0  0
  -23.1002    6.9935  -14.4538 C   0  0  0  0  0  0  0  0  0  0  0  0
  -24.1719    7.8736  -14.6374 C   0  0  0  0  0  0  0  0  0  0  0  0
  -27.2329    9.6612   -9.8202 C   0  0  0  0  0  0  0  0  0  0  0  0
  -27.2621   10.2823  -11.2156 C   0  0  0  0  0  0  0  0  0  0  0  0
  -28.6929   10.3033  -11.7750 C   0  0  0  0  0  0  0  0  0  0  0  0
  -28.7521   10.5525  -13.2936 C   0  0  0  0  0  0  0  0  0  0  0  0
  -29.2448    9.3054  -14.0377 C   0  0  0  0  0  0  0  0  0  0  0  0
  -27.4077   11.0282  -13.8553 C   0  0  0  0  0  0  0  0  0  0  0  0
  -26.3005   10.1374  -13.5118 N   0  0  0  0  0  0  0  0  0  0  0  0
  -25.1699   10.1656  -14.3306 C   0  0  0  0  0  0  0  0  0  0  0  0
  -25.0135   11.0066  -15.2199 O   0  0  0  0  0  0  0  0  0  0  0  0
  -26.3186    9.5415  -12.1683 C   0  0  0  0  0  0  0  0  0  0  0  0
  -25.3689    7.4929  -15.2953 N   0  0  0  0  0  0  0  0  0  0  0  0
  -25.5588    7.1837  -16.6245 C   0  0  0  0  0  0  0  0  0  0  0  0
  -24.7346    7.2638  -17.5268 O   0  0  0  0  0  0  0  0  0  0  0  0
  -26.1710    7.4429  -14.7267 H   0  0  0  0  0  0  0  0  0  0  0  0
  -26.9742    6.6892  -16.8849 C   0  0  0  0  0  0  0  0  0  0  0  0
  -27.2106    6.4173  -18.3738 C   0  0  0  0  0  0  0  0  0  0  0  0
  -28.0585    7.4941  -19.0498 C   0  0  0  0  0  0  0  0  0  0  0  0
  -28.3714    7.2241  -20.5356 N   0  0  0  0  0  0  0  0  0  0  0  0
  -29.3625    6.0837  -20.7238 C   0  0  0  0  0  0  0  0  0  0  0  0
  -28.9951    8.4991  -21.1179 C   0  0  0  0  0  0  0  0  0  0  0  0
  -27.0953    6.9267  -21.3242 C   0  0  0  0  0  0  0  0  0  0  0  0
  9  8  1  0
  9 10  1  0
 10 11  1  0
 11 12  1  0
 11 13  1  0
 13 14  1  0
 14 15  1  0
 15 16  2  0
 15  1  1  0
  1  2  2  0
  2  3  1  0
  3  4  1  0
  3  5  2  0
  5  6  1  0
  6  7  2  0
  7 18  1  0
 18 19  1  0
 19 20  2  0
 19 22  1  0
 22 23  1  0
 23 24  1  0
 24 25  1  0
 25 26  1  0
 25 27  1  0
 25 28  1  0
 14 17  1  0
 17  9  1  0
  7  1  1  0
 18 21  1  0
M  CHG 1  25   1
M  END
> <minimizedAffinity>
-6.61794

> <CNNscore>
0.7182379365

> <CNNaffinity>
5.3756232262

> <CNN_VS>
3.8609764576

> <CNNaffinity_variance>
0.5712986588

$$$$



 28 29  0  0  0  0  0  0  0  0999 V2000
  -24.4236    7.4024  -13.4059 C   0  0  0  0  0  0  0  0  0  0  0  0
  -23.3956    8.0771  -12.7300 C   0  0  0  0  0  0  0  0  0  0  0  0
  -22.1402    8.1853  -13.3184 C   0  0  0  0  0  0  0  0  0  0  0  0
  -20.7635    9.1195  -12.4224 Br  0  0  0  0  0  0  0  0  0  0  0  0
  -21.8928    7.6112  -14.5613 C   0  0  0  0  0  0  0  0  0  0  0  0
  -22.9000    6.8917  -15.2145 C   0  0  0  0  0  0  0  0  0  0  0  0
  -24.1676    6.7558  -14.6388 C   0  0  0  0  0  0  0  0  0  0  0  0
  -27.2058   11.9464  -13.9626 C   0  0  0  0  0  0  0  0  0  0  0  0
  -27.4973   10.6200  -13.2631 C   0  0  0  0  0  0  0  0  0  0  0  0
  -28.1533   10.8563  -11.8940 C   0  0  0  0  0  0  0  0  0  0  0  0
  -28.1266    9.6164  -10.9810 C   0  0  0  0  0  0  0  0  0  0  0  0
  -27.2031    9.8385   -9.7771 C   0  0  0  0  0  0  0  0  0  0  0  0
  -27.7354    8.3449  -11.7423 C   0  0  0  0  0  0  0  0  0  0  0  0
  -26.4781    8.4849  -12.4752 N   0  0  0  0  0  0  0  0  0  0  0  0
  -25.7762    7.3181  -12.7842 C   0  0  0  0  0  0  0  0  0  0  0  0
  -26.2456    6.1915  -12.6017 O   0  0  0  0  0  0  0  0  0  0  0  0
  -26.2229    9.7828  -13.1162 C   0  0  0  0  0  0  0  0  0  0  0  0
  -25.1925    5.9703  -15.2247 N   0  0  0  0  0  0  0  0  0  0  0  0
  -25.2601    5.4591  -16.5024 C   0  0  0  0  0  0  0  0  0  0  0  0
  -24.4761    5.6607  -17.4214 O   0  0  0  0  0  0  0  0  0  0  0  0
  -25.9576    5.7627  -14.6409 H   0  0  0  0  0  0  0  0  0  0  0  0
  -26.4692    4.5515  -16.6762 C   0  0  0  0  0  0  0  0  0  0  0  0
  -26.3763    3.7308  -17.9663 C   0  0  0  0  0  0  0  0  0  0  0  0
  -25.7732    2.3436  -17.7489 C   0  0  0  0  0  0  0  0  0  0  0  0
  -24.6318    1.9818  -18.7209 N   0  0  0  0  0  0  0  0  0  0  0  0
  -23.3126    2.6398  -18.3401 C   0  0  0  0  0  0  0  0  0  0  0  0
  -24.4396    0.4608  -18.6658 C   0  0  0  0  0  0  0  0  0  0  0  0
  -24.9917    2.3550  -20.1596 C   0  0  0  0  0  0  0  0  0  0  0  0
  9  8  1  0
  9 10  1  0
 10 11  1  0
 11 12  1  0
 11 13  1  0
 13 14  1  0
 14 15  1  0
 15 16  2  0
 15  1  1  0
  1  2  2  0
  2  3  1  0
  3  4  1  0
  3  5  2  0
  5  6  1  0
  6  7  2  0
  7 18  1  0
 18 19  1  0
 19 20  2  0
 19 22  1  0
 22 23  1  0
 23 24  1  0
 24 25  1  0
 25 26  1  0
 25 27  1  0
 25 28  1  0
 14 17  1  0
 17  9  1  0
  7  1  1  0
 18 21  1  0
M  CHG 1  25   1
M  END
> <minimizedAffinity>
-6.32565

> <CNNscore>
0.7159113288

> <CNNaffinity>
6.1201763153

> <CNN_VS>
4.3815035820

> <CNNaffinity_variance>
0.0617393702

$$$$



 28 29  0  0  0  0  0  0  0  0999 V2000
  -25.0565    8.0052  -13.6304 C   0  0  0  0  0  0  0  0  0  0  0  0
  -23.8940    8.3458  -12.9224 C   0  0  0  0  0  0  0  0  0  0  0  0
  -22.6802    8.4371  -13.5950 C   0  0  0  0  0  0  0  0  0  0  0  0
  -21.1193    8.9249  -12.6482 Br  0  0  0  0  0  0  0  0  0  0  0  0
  -22.6089    8.1727  -14.9590 C   0  0  0  0  0  0  0  0  0  0  0  0
  -23.7563    7.7807  -15.6583 C   0  0  0  0  0  0  0  0  0  0  0  0
  -24.9871    7.6676  -15.0033 C   0  0  0  0  0  0  0  0  0  0  0  0
  -27.4675   12.7811  -13.3548 C   0  0  0  0  0  0  0  0  0  0  0  0
  -27.8192   11.3984  -12.8089 C   0  0  0  0  0  0  0  0  0  0  0  0
  -28.3462   11.4965  -11.3691 C   0  0  0  0  0  0  0  0  0  0  0  0
  -28.3581   10.1462  -10.6288 C   0  0  0  0  0  0  0  0  0  0  0  0
  -27.3300   10.1325   -9.4911 C   0  0  0  0  0  0  0  0  0  0  0  0
  -28.1378    8.9632  -11.5783 C   0  0  0  0  0  0  0  0  0  0  0  0
  -26.9324    9.1050  -12.3935 N   0  0  0  0  0  0  0  0  0  0  0  0
  -26.3602    7.9407  -12.9096 C   0  0  0  0  0  0  0  0  0  0  0  0
  -26.9104    6.8388  -12.8334 O   0  0  0  0  0  0  0  0  0  0  0  0
  -26.6149   10.4545  -12.8820 C   0  0  0  0  0  0  0  0  0  0  0  0
  -26.1572    7.1975  -15.6518 N   0  0  0  0  0  0  0  0  0  0  0  0
  -26.4306    5.9312  -16.1210 C   0  0  0  0  0  0  0  0  0  0  0  0
  -25.6690    4.9725  -16.1473 O   0  0  0  0  0  0  0  0  0  0  0  0
  -26.8689    7.8647  -15.7845 H   0  0  0  0  0  0  0  0  0  0  0  0
  -27.8623    5.8206  -16.6249 C   0  0  0  0  0  0  0  0  0  0  0  0
  -28.7993    6.7696  -15.8712 C   0  0  0  0  0  0  0  0  0  0  0  0
  -30.2004    6.1924  -15.6735 C   0  0  0  0  0  0  0  0  0  0  0  0
  -31.3246    6.9873  -16.3684 N   0  0  0  0  0  0  0  0  0  0  0  0
  -31.1236    8.4929  -16.2630 C   0  0  0  0  0  0  0  0  0  0  0  0
  -31.3116    6.6073  -17.8547 C   0  0  0  0  0  0  0  0  0  0  0  0
  -32.6959    6.6145  -15.8034 C   0  0  0  0  0  0  0  0  0  0  0  0
  9  8  1  0
  9 10  1  0
 10 11  1  0
 11 12  1  0
 11 13  1  0
 13 14  1  0
 14 15  1  0
 15 16  2  0
 15  1  1  0
  1  2  2  0
  2  3  1  0
  3  4  1  0
  3  5  2  0
  5  6  1  0
  6  7  2  0
  7 18  1  0
 18 19  1  0
 19 20  2  0
 19 22  1  0
 22 23  1  0
 23 24  1  0
 24 25  1  0
 25 26  1  0
 25 27  1  0
 25 28  1  0
 14 17  1  0
 17  9  1  0
  7  1  1  0
 18 21  1  0
M  CHG 1  25   1
M  END
> <minimizedAffinity>
-5.23930

> <CNNscore>
0.6559074521

> <CNNaffinity>
5.5398478508

> <CNN_VS>
3.6336274147

> <CNNaffinity_variance>
0.0570543110

$$$$



 28 29  0  0  0  0  0  0  0  0999 V2000
  -24.4717    7.6875  -13.0411 C   0  0  0  0  0  0  0  0  0  0  0  0
  -23.3429    8.4347  -12.6720 C   0  0  0  0  0  0  0  0  0  0  0  0
  -22.1409    8.2441  -13.3451 C   0  0  0  0  0  0  0  0  0  0  0  0
  -20.6279    9.2712  -12.8689 Br  0  0  0  0  0  0  0  0  0  0  0  0
  -22.0466    7.3037  -14.3660 C   0  0  0  0  0  0  0  0  0  0  0  0
  -23.1558    6.5187  -14.7012 C   0  0  0  0  0  0  0  0  0  0  0  0
  -24.3729    6.6804  -14.0308 C   0  0  0  0  0  0  0  0  0  0  0  0
  -28.0741   10.1347  -16.1607 C   0  0  0  0  0  0  0  0  0  0  0  0
  -28.0904    9.6788  -14.7028 C   0  0  0  0  0  0  0  0  0  0  0  0
  -28.7387   10.7429  -13.8041 C   0  0  0  0  0  0  0  0  0  0  0  0
  -28.4525   10.5345  -12.3053 C   0  0  0  0  0  0  0  0  0  0  0  0
  -27.5525   11.6480  -11.7562 C   0  0  0  0  0  0  0  0  0  0  0  0
  -27.8515    9.1543  -12.0169 C   0  0  0  0  0  0  0  0  0  0  0  0
  -26.6650    8.8709  -12.8229 N   0  0  0  0  0  0  0  0  0  0  0  0
  -25.7655    7.9198  -12.3373 C   0  0  0  0  0  0  0  0  0  0  0  0
  -26.0090    7.2150  -11.3541 O   0  0  0  0  0  0  0  0  0  0  0  0
  -26.6775    9.3446  -14.2142 C   0  0  0  0  0  0  0  0  0  0  0  0
  -25.4982    5.8546  -14.2808 N   0  0  0  0  0  0  0  0  0  0  0  0
  -26.3465    5.8625  -15.3666 C   0  0  0  0  0  0  0  0  0  0  0  0
  -26.3446    6.6552  -16.3000 O   0  0  0  0  0  0  0  0  0  0  0  0
  -25.7003    5.1869  -13.5861 H   0  0  0  0  0  0  0  0  0  0  0  0
  -27.3431    4.7141  -15.3034 C   0  0  0  0  0  0  0  0  0  0  0  0
  -28.7543    5.2109  -14.9746 C   0  0  0  0  0  0  0  0  0  0  0  0
  -28.8465    5.8823  -13.6049 C   0  0  0  0  0  0  0  0  0  0  0  0
  -29.9490    5.3162  -12.6869 N   0  0  0  0  0  0  0  0  0  0  0  0
  -30.3767    6.3064  -11.6121 C   0  0  0  0  0  0  0  0  0  0  0  0
  -31.1696    5.0070  -13.5634 C   0  0  0  0  0  0  0  0  0  0  0  0
  -29.5037    4.0095  -12.0290 C   0  0  0  0  0  0  0  0  0  0  0  0
  9  8  1  0
  9 10  1  0
 10 11  1  0
 11 12  1  0
 11 13  1  0
 13 14  1  0
 14 15  1  0
 15 16  2  0
 15  1  1  0
  1  2  2  0
  2  3  1  0
  3  4  1  0
  3  5  2  0
  5  6  1  0
  6  7  2  0
  7 18  1  0
 18 19  1  0
 19 20  2  0
 19 22  1  0
 22 23  1  0
 23 24  1  0
 24 25  1  0
 25 26  1  0
 25 27  1  0
 25 28  1  0
 14 17  1  0
 17  9  1  0
  7  1  1  0
 18 21  1  0
M  CHG 1  25   1
M  END
> <minimizedAffinity>
-5.30022

> <CNNscore>
0.5069929361

> <CNNaffinity>
5.1638350487

> <CNN_VS>
2.6180279255

> <CNNaffinity_variance>
0.1307752281

$$$$



 28 29  0  0  0  0  0  0  0  0999 V2000
  -24.1477    9.2001  -14.0873 C   0  0  0  0  0  0  0  0  0  0  0  0
  -23.0096    9.5735  -13.3564 C   0  0  0  0  0  0  0  0  0  0  0  0
  -21.9784    8.6586  -13.1733 C   0  0  0  0  0  0  0  0  0  0  0  0
  -20.4321    9.1698  -12.2148 Br  0  0  0  0  0  0  0  0  0  0  0  0
  -22.0781    7.3714  -13.6918 C   0  0  0  0  0  0  0  0  0  0  0  0
  -23.2344    6.9784  -14.3754 C   0  0  0  0  0  0  0  0  0  0  0  0
  -24.2923    7.8744  -14.5618 C   0  0  0  0  0  0  0  0  0  0  0  0
  -27.2277    9.8425   -9.7515 C   0  0  0  0  0  0  0  0  0  0  0  0
  -27.2698   10.4295  -11.1612 C   0  0  0  0  0  0  0  0  0  0  0  0
  -28.7096   10.4643  -11.6964 C   0  0  0  0  0  0  0  0  0  0  0  0
  -28.7908   10.6772  -13.2194 C   0  0  0  0  0  0  0  0  0  0  0  0
  -29.3199    9.4219  -13.9237 C   0  0  0  0  0  0  0  0  0  0  0  0
  -27.4479   11.1130  -13.8158 C   0  0  0  0  0  0  0  0  0  0  0  0
  -26.3517   10.2097  -13.4692 N   0  0  0  0  0  0  0  0  0  0  0  0
  -25.2353   10.1959  -14.3077 C   0  0  0  0  0  0  0  0  0  0  0  0
  -25.0788   11.0117  -15.2203 O   0  0  0  0  0  0  0  0  0  0  0  0
  -26.3573    9.6475  -12.1111 C   0  0  0  0  0  0  0  0  0  0  0  0
  -25.5133    7.4976  -15.1765 N   0  0  0  0  0  0  0  0  0  0  0  0
  -25.7671    7.2582  -16.5095 C   0  0  0  0  0  0  0  0  0  0  0  0
  -24.9953    7.4121  -17.4479 O   0  0  0  0  0  0  0  0  0  0  0  0
  -26.2819    7.3931  -14.5703 H   0  0  0  0  0  0  0  0  0  0  0  0
  -27.1816    6.7393  -16.7230 C   0  0  0  0  0  0  0  0  0  0  0  0
  -27.9001    6.4989  -15.3916 C   0  0  0  0  0  0  0  0  0  0  0  0
  -28.8288    5.2857  -15.4253 C   0  0  0  0  0  0  0  0  0  0  0  0
  -28.4158    4.1365  -14.4833 N   0  0  0  0  0  0  0  0  0  0  0  0
  -28.2010    4.6067  -13.0511 C   0  0  0  0  0  0  0  0  0  0  0  0
  -29.5526    3.1062  -14.4816 C   0  0  0  0  0  0  0  0  0  0  0  0
  -27.1523    3.4367  -14.9857 C   0  0  0  0  0  0  0  0  0  0  0  0
  9  8  1  0
  9 10  1  0
 10 11  1  0
 11 12  1  0
 11 13  1  0
 13 14  1  0
 14 15  1  0
 15 16  2  0
 15  1  1  0
  1  2  2  0
  2  3  1  0
  3  4  1  0
  3  5  2  0
  5  6  1  0
  6  7  2  0
  7 18  1  0
 18 19  1  0
 19 20  2  0
 19 22  1  0
 22 23  1  0
 23 24  1  0
 24 25  1  0
 25 26  1  0
 25 27  1  0
 25 28  1  0
 14 17  1  0
 17  9  1  0
  7  1  1  0
 18 21  1  0
M  CHG 1  25   1
M  END
> <minimizedAffinity>
-6.54596

> <CNNscore>
0.4655559361

> <CNNaffinity>
5.1240983009

> <CNN_VS>
2.3855543137

> <CNNaffinity_variance>
0.2979132831

$$$$



 28 29  0  0  0  0  0  0  0  0999 V2000
  -24.3136    9.1039  -14.0473 C   0  0  0  0  0  0  0  0  0  0  0  0
  -23.0973    9.5404  -13.5006 C   0  0  0  0  0  0  0  0  0  0  0  0
  -22.0597    8.6328  -13.3177 C   0  0  0  0  0  0  0  0  0  0  0  0
  -20.4111    9.2255  -12.6094 Br  0  0  0  0  0  0  0  0  0  0  0  0
  -22.2279    7.2933  -13.6536 C   0  0  0  0  0  0  0  0  0  0  0  0
  -23.4572    6.8435  -14.1491 C   0  0  0  0  0  0  0  0  0  0  0  0
  -24.5219    7.7327  -14.3299 C   0  0  0  0  0  0  0  0  0  0  0  0
  -27.2912    9.8644   -9.6594 C   0  0  0  0  0  0  0  0  0  0  0  0
  -27.3700   10.4086  -11.0846 C   0  0  0  0  0  0  0  0  0  0  0  0
  -28.8224   10.4217  -11.5856 C   0  0  0  0  0  0  0  0  0  0  0  0
  -28.9413   10.5883  -13.1119 C   0  0  0  0  0  0  0  0  0  0  0  0
  -29.4814    9.3103  -13.7652 C   0  0  0  0  0  0  0  0  0  0  0  0
  -27.6151   11.0112  -13.7535 C   0  0  0  0  0  0  0  0  0  0  0  0
  -26.5067   10.1230  -13.4066 N   0  0  0  0  0  0  0  0  0  0  0  0
  -25.4109   10.0884  -14.2710 C   0  0  0  0  0  0  0  0  0  0  0  0
  -25.2802   10.8770  -15.2112 O   0  0  0  0  0  0  0  0  0  0  0  0
  -26.4771    9.6019  -12.0325 C   0  0  0  0  0  0  0  0  0  0  0  0
  -25.8075    7.3092  -14.7525 N   0  0  0  0  0  0  0  0  0  0  0  0
  -26.1452    6.5551  -15.8551 C   0  0  0  0  0  0  0  0  0  0  0  0
  -25.3969    6.1721  -16.7458 O   0  0  0  0  0  0  0  0  0  0  0  0
  -26.5587    7.5915  -14.1823 H   0  0  0  0  0  0  0  0  0  0  0  0
  -27.6267    6.2076  -15.8601 C   0  0  0  0  0  0  0  0  0  0  0  0
  -27.9636    5.1628  -14.7917 C   0  0  0  0  0  0  0  0  0  0  0  0
  -29.3254    5.3950  -14.1385 C   0  0  0  0  0  0  0  0  0  0  0  0
  -29.2982    5.4339  -12.5969 N   0  0  0  0  0  0  0  0  0  0  0  0
  -28.0678    6.1481  -12.0544 C   0  0  0  0  0  0  0  0  0  0  0  0
  -30.5408    6.2031  -12.1299 C   0  0  0  0  0  0  0  0  0  0  0  0
  -29.3723    4.0250  -12.0069 C   0  0  0  0  0  0  0  0  0  0  0  0
  9  8  1  0
  9 10  1  0
 10 11  1  0
 11 12  1  0
 11 13  1  0
 13 14  1  0
 14 15  1  0
 15 16  2  0
 15  1  1  0
  1  2  2  0
  2  3  1  0
  3  4  1  0
  3  5  2  0
  5  6  1  0
  6  7  2  0
  7 18  1  0
 18 19  1  0
 19 20  2  0
 19 22  1  0
 22 23  1  0
 23 24  1  0
 24 25  1  0
 25 26  1  0
 25 27  1  0
 25 28  1  0
 14 17  1  0
 17  9  1  0
  7  1  1  0
 18 21  1  0
M  CHG 1  25   1
M  END
> <minimizedAffinity>
-6.16366

> <CNNscore>
0.4007523954

> <CNNaffinity>
5.4140400887

> <CNN_VS>
2.1696894169

> <CNNaffinity_variance>
0.1329639554

$$$$
