


 12 12  0  0  0  0  0  0  0  0999 V2000
    3.8932   13.4726   41.0774 C   0  0  0  0  0  0  0  0  0  0  0  0
    4.0120   13.3324   42.5674 C   0  0  0  0  0  0  0  0  0  0  0  0
    3.3784   14.2881   43.2892 N   0  0  0  0  0  0  0  0  0  0  0  0
    3.4415   14.1979   44.6180 C   0  0  0  0  0  0  0  0  0  0  0  0
    2.8090   15.1743   45.3554 N   0  0  0  0  0  0  0  0  0  0  0  0
    4.1116   13.2568   45.2838 N   0  0  0  0  0  0  0  0  0  0  0  0
    4.7426   12.3050   44.5544 C   0  0  0  0  0  0  0  0  0  0  0  0
    5.4657   11.2610   45.3548 C   0  0  0  0  0  0  0  0  0  0  0  0
    4.7197   12.2990   43.1663 C   0  0  0  0  0  0  0  0  0  0  0  0
    5.6047   10.9650   42.1512 Br  0  0  0  0  0  0  0  0  0  0  0  0
    2.3042   15.8860   44.8995 H   0  0  0  0  0  0  0  0  0  0  0  0
    2.8616   15.1604   46.3384 H   0  0  0  0  0  0  0  0  0  0  0  0
  1  2  1  0
  2  3  2  0
  3  4  1  0
  4  5  1  0
  4  6  2  0
  6  7  1  0
  7  8  1  0
  7  9  2  0
  9 10  1  0
  9  2  1  0
  5 11  1  0
  5 12  1  0
M  END
> <minimizedAffinity>
-5.46549

> <CNNscore>
0.9554130435

> <CNNaffinity>
4.7016172409

> <CNN_VS>
4.4919862747

> <CNNaffinity_variance>
0.2888047993

$$$$



 12 12  0  0  0  0  0  0  0  0999 V2000
    3.1969   14.7562   45.3716 C   0  0  0  0  0  0  0  0  0  0  0  0
    3.7170   13.8122   44.3264 C   0  0  0  0  0  0  0  0  0  0  0  0
    3.5083   14.1989   43.0447 N   0  0  0  0  0  0  0  0  0  0  0  0
    3.9664   13.4010   42.0796 C   0  0  0  0  0  0  0  0  0  0  0  0
    3.7456   13.7843   40.7752 N   0  0  0  0  0  0  0  0  0  0  0  0
    4.5818   12.2362   42.2862 N   0  0  0  0  0  0  0  0  0  0  0  0
    4.7863   11.8570   43.5709 C   0  0  0  0  0  0  0  0  0  0  0  0
    5.4989   10.5473   43.7450 C   0  0  0  0  0  0  0  0  0  0  0  0
    4.3655   12.6272   44.6466 C   0  0  0  0  0  0  0  0  0  0  0  0
    4.6541   12.0913   46.4417 Br  0  0  0  0  0  0  0  0  0  0  0  0
    3.2941   14.6377   40.5827 H   0  0  0  0  0  0  0  0  0  0  0  0
    4.0392   13.2049   40.0355 H   0  0  0  0  0  0  0  0  0  0  0  0
  1  2  1  0
  2  3  2  0
  3  4  1  0
  4  5  1  0
  4  6  2  0
  6  7  1  0
  7  8  1  0
  7  9  2  0
  9 10  1  0
  9  2  1  0
  5 11  1  0
  5 12  1  0
M  END
> <minimizedAffinity>
-5.22900

> <CNNscore>
0.9261453748

> <CNNaffinity>
4.7214589119

> <CNN_VS>
4.3727574348

> <CNNaffinity_variance>
0.1070763469

$$$$



 12 12  0  0  0  0  0  0  0  0999 V2000
    5.4664   10.5434   44.0509 C   0  0  0  0  0  0  0  0  0  0  0  0
    4.7744   11.8522   43.8021 C   0  0  0  0  0  0  0  0  0  0  0  0
    4.6281   12.1886   42.4978 N   0  0  0  0  0  0  0  0  0  0  0  0
    4.0049   13.3354   42.2249 C   0  0  0  0  0  0  0  0  0  0  0  0
    3.8650   13.6870   40.9006 N   0  0  0  0  0  0  0  0  0  0  0  0
    3.5489   14.1883   43.1428 N   0  0  0  0  0  0  0  0  0  0  0  0
    3.6994   13.8443   44.4447 C   0  0  0  0  0  0  0  0  0  0  0  0
    3.1522   14.8318   45.4341 C   0  0  0  0  0  0  0  0  0  0  0  0
    4.3160   12.6623   44.8321 C   0  0  0  0  0  0  0  0  0  0  0  0
    4.5240   12.1866   46.6552 Br  0  0  0  0  0  0  0  0  0  0  0  0
    4.1895   13.0831   40.1940 H   0  0  0  0  0  0  0  0  0  0  0  0
    3.4405   14.5423   40.6606 H   0  0  0  0  0  0  0  0  0  0  0  0
  1  2  1  0
  2  3  2  0
  3  4  1  0
  4  5  1  0
  4  6  2  0
  6  7  1  0
  7  8  1  0
  7  9  2  0
  9 10  1  0
  9  2  1  0
  5 11  1  0
  5 12  1  0
M  END
> <minimizedAffinity>
-5.21642

> <CNNscore>
0.9214513302

> <CNNaffinity>
4.7330093384

> <CNN_VS>
4.3612375259

> <CNNaffinity_variance>
0.1028520837

$$$$



 12 12  0  0  0  0  0  0  0  0999 V2000
    4.6865   11.6471   46.8436 C   0  0  0  0  0  0  0  0  0  0  0  0
    4.2615   12.6900   45.8508 C   0  0  0  0  0  0  0  0  0  0  0  0
    3.7646   13.8300   46.3888 N   0  0  0  0  0  0  0  0  0  0  0  0
    3.3879   14.7934   45.5474 C   0  0  0  0  0  0  0  0  0  0  0  0
    2.8709   15.9491   46.0898 N   0  0  0  0  0  0  0  0  0  0  0  0
    3.4326   14.7002   44.2180 N   0  0  0  0  0  0  0  0  0  0  0  0
    3.9307   13.5569   43.6883 C   0  0  0  0  0  0  0  0  0  0  0  0
    3.9744   13.5133   42.1885 C   0  0  0  0  0  0  0  0  0  0  0  0
    4.3683   12.5032   44.4793 C   0  0  0  0  0  0  0  0  0  0  0  0
    5.0639   10.9058   43.7325 Br  0  0  0  0  0  0  0  0  0  0  0  0
    2.8214   16.0549   47.0673 H   0  0  0  0  0  0  0  0  0  0  0  0
    2.5507   16.6694   45.4999 H   0  0  0  0  0  0  0  0  0  0  0  0
  1  2  1  0
  2  3  2  0
  3  4  1  0
  4  5  1  0
  4  6  2  0
  6  7  1  0
  7  8  1  0
  7  9  2  0
  9 10  1  0
  9  2  1  0
  5 11  1  0
  5 12  1  0
M  END
> <minimizedAffinity>
-5.65259

> <CNNscore>
0.7789969444

> <CNNaffinity>
4.6261286736

> <CNN_VS>
3.6037402153

> <CNNaffinity_variance>
0.5677987337

$$$$



 12 12  0  0  0  0  0  0  0  0999 V2000
    4.7276   12.0254   46.6816 C   0  0  0  0  0  0  0  0  0  0  0  0
    4.8794   11.9012   45.1932 C   0  0  0  0  0  0  0  0  0  0  0  0
    4.2112   12.8288   44.4658 N   0  0  0  0  0  0  0  0  0  0  0  0
    4.3276   12.7699   43.1388 C   0  0  0  0  0  0  0  0  0  0  0  0
    3.6401   13.7035   42.3952 N   0  0  0  0  0  0  0  0  0  0  0  0
    5.0242   11.8444   42.4784 N   0  0  0  0  0  0  0  0  0  0  0  0
    5.6893   10.9206   43.2133 C   0  0  0  0  0  0  0  0  0  0  0  0
    6.4710    9.9144   42.4196 C   0  0  0  0  0  0  0  0  0  0  0  0
    5.6483   10.9086   44.6010 C   0  0  0  0  0  0  0  0  0  0  0  0
    6.5806    9.6133   45.6239 Br  0  0  0  0  0  0  0  0  0  0  0  0
    3.1144   14.4026   42.8471 H   0  0  0  0  0  0  0  0  0  0  0  0
    3.6743   13.6716   41.4118 H   0  0  0  0  0  0  0  0  0  0  0  0
  1  2  1  0
  2  3  2  0
  3  4  1  0
  4  5  1  0
  4  6  2  0
  6  7  1  0
  7  8  1  0
  7  9  2  0
  9 10  1  0
  9  2  1  0
  5 11  1  0
  5 12  1  0
M  END
> <minimizedAffinity>
-4.21707

> <CNNscore>
0.6511149406

> <CNNaffinity>
4.5027098656

> <CNN_VS>
2.9317817688

> <CNNaffinity_variance>
0.0619334392

$$$$



 12 12  0  0  0  0  0  0  0  0999 V2000
    2.8457   14.5377   45.1675 C   0  0  0  0  0  0  0  0  0  0  0  0
    3.7887   13.4058   45.4564 C   0  0  0  0  0  0  0  0  0  0  0  0
    3.9273   13.0907   46.7669 N   0  0  0  0  0  0  0  0  0  0  0  0
    4.7424   12.0809   47.0733 C   0  0  0  0  0  0  0  0  0  0  0  0
    4.8957   11.7652   48.4052 N   0  0  0  0  0  0  0  0  0  0  0  0
    5.4553   11.3852   46.1869 N   0  0  0  0  0  0  0  0  0  0  0  0
    5.3109   11.7069   44.8786 C   0  0  0  0  0  0  0  0  0  0  0  0
    6.1225   10.8805   43.9238 C   0  0  0  0  0  0  0  0  0  0  0  0
    4.4714   12.7284   44.4553 C   0  0  0  0  0  0  0  0  0  0  0  0
    4.2737   13.1742   42.6235 Br  0  0  0  0  0  0  0  0  0  0  0  0
    4.3862   12.2568   49.0894 H   0  0  0  0  0  0  0  0  0  0  0  0
    5.5146   11.0480   48.6731 H   0  0  0  0  0  0  0  0  0  0  0  0
  1  2  1  0
  2  3  2  0
  3  4  1  0
  4  5  1  0
  4  6  2  0
  6  7  1  0
  7  8  1  0
  7  9  2  0
  9 10  1  0
  9  2  1  0
  5 11  1  0
  5 12  1  0
M  END
> <minimizedAffinity>
-5.83253

> <CNNscore>
0.6302820444

> <CNNaffinity>
4.4274773598

> <CNN_VS>
2.7905595303

> <CNNaffinity_variance>
0.4724358618

$$$$



 12 12  0  0  0  0  0  0  0  0999 V2000
    5.9812    9.7183   41.4437 C   0  0  0  0  0  0  0  0  0  0  0  0
    5.4487   10.7691   42.3743 C   0  0  0  0  0  0  0  0  0  0  0  0
    4.8120   11.8031   41.7731 N   0  0  0  0  0  0  0  0  0  0  0  0
    4.3071   12.7546   42.5590 C   0  0  0  0  0  0  0  0  0  0  0  0
    3.6698   13.8136   41.9512 N   0  0  0  0  0  0  0  0  0  0  0  0
    4.4154   12.7780   43.8878 N   0  0  0  0  0  0  0  0  0  0  0  0
    5.0537   11.7404   44.4809 C   0  0  0  0  0  0  0  0  0  0  0  0
    5.1307   11.8091   45.9785 C   0  0  0  0  0  0  0  0  0  0  0  0
    5.5964   10.6905   43.7525 C   0  0  0  0  0  0  0  0  0  0  0  0
    6.4887    9.2417   44.5878 Br  0  0  0  0  0  0  0  0  0  0  0  0
    3.5704   13.8320   40.9720 H   0  0  0  0  0  0  0  0  0  0  0  0
    3.3136   14.5522   42.4961 H   0  0  0  0  0  0  0  0  0  0  0  0
  1  2  1  0
  2  3  2  0
  3  4  1  0
  4  5  1  0
  4  6  2  0
  6  7  1  0
  7  8  1  0
  7  9  2  0
  9 10  1  0
  9  2  1  0
  5 11  1  0
  5 12  1  0
M  END
> <minimizedAffinity>
-4.00139

> <CNNscore>
0.6188944578

> <CNNaffinity>
4.4728932381

> <CNN_VS>
2.7682487965

> <CNNaffinity_variance>
0.0555044897

$$$$



 12 12  0  0  0  0  0  0  0  0999 V2000
    6.2878   10.9782   43.9536 C   0  0  0  0  0  0  0  0  0  0  0  0
    5.4175   11.7640   44.8912 C   0  0  0  0  0  0  0  0  0  0  0  0
    5.5232   11.4236   46.1984 N   0  0  0  0  0  0  0  0  0  0  0  0
    4.7815   12.1042   47.0728 C   0  0  0  0  0  0  0  0  0  0  0  0
    4.8768   11.7531   48.4012 N   0  0  0  0  0  0  0  0  0  0  0  0
    3.9198   13.0687   46.7483 N   0  0  0  0  0  0  0  0  0  0  0  0
    3.8202   13.4028   45.4389 C   0  0  0  0  0  0  0  0  0  0  0  0
    2.8493   14.5061   45.1329 C   0  0  0  0  0  0  0  0  0  0  0  0
    4.5643   12.7680   44.4537 C   0  0  0  0  0  0  0  0  0  0  0  0
    4.4203   13.2395   42.6234 Br  0  0  0  0  0  0  0  0  0  0  0  0
    5.5019   11.0453   48.6796 H   0  0  0  0  0  0  0  0  0  0  0  0
    4.3199   12.2100   49.0723 H   0  0  0  0  0  0  0  0  0  0  0  0
  1  2  1  0
  2  3  2  0
  3  4  1  0
  4  5  1  0
  4  6  2  0
  6  7  1  0
  7  8  1  0
  7  9  2  0
  9 10  1  0
  9  2  1  0
  5 11  1  0
  5 12  1  0
M  END
> <minimizedAffinity>
-5.80119

> <CNNscore>
0.6020226479

> <CNNaffinity>
4.4601216316

> <CNN_VS>
2.6850941181

> <CNNaffinity_variance>
0.4208590686

$$$$



 12 12  0  0  0  0  0  0  0  0999 V2000
    7.9064    7.7628   43.1068 C   0  0  0  0  0  0  0  0  0  0  0  0
    8.8376    6.5853   43.1180 C   0  0  0  0  0  0  0  0  0  0  0  0
    8.6917    5.7444   44.1704 N   0  0  0  0  0  0  0  0  0  0  0  0
    9.4858    4.6743   44.2168 C   0  0  0  0  0  0  0  0  0  0  0  0
    9.3491    3.8235   45.2913 N   0  0  0  0  0  0  0  0  0  0  0  0
   10.4340    4.3935   43.3224 N   0  0  0  0  0  0  0  0  0  0  0  0
   10.5733    5.2395   42.2732 C   0  0  0  0  0  0  0  0  0  0  0  0
   11.6427    4.8658   41.2883 C   0  0  0  0  0  0  0  0  0  0  0  0
    9.7818    6.3702   42.1232 C   0  0  0  0  0  0  0  0  0  0  0  0
    9.9816    7.5505   40.6534 Br  0  0  0  0  0  0  0  0  0  0  0  0
    8.6602    3.9978   45.9727 H   0  0  0  0  0  0  0  0  0  0  0  0
    9.9403    3.0411   45.3780 H   0  0  0  0  0  0  0  0  0  0  0  0
  1  2  1  0
  2  3  2  0
  3  4  1  0
  4  5  1  0
  4  6  2  0
  6  7  1  0
  7  8  1  0
  7  9  2  0
  9 10  1  0
  9  2  1  0
  5 11  1  0
  5 12  1  0
M  END
> <minimizedAffinity>
-5.12592

> <CNNscore>
0.5226528049

> <CNNaffinity>
5.3776702881

> <CNN_VS>
2.8106544018

> <CNNaffinity_variance>
0.0929092169

$$$$
