


 22 25  0  0  0  0  0  0  0  0999 V2000
   16.4940    5.4443   11.8190 C   0  0  0  0  0  0  0  0  0  0  0  0
   16.4934    6.9286   11.9347 C   0  0  0  0  0  0  0  0  0  0  0  0
   17.5639    7.6386   12.2357 N   0  0  0  0  0  0  0  0  0  0  0  0
   17.1555    8.9416   12.2343 C   0  0  0  0  0  0  0  0  0  0  0  0
   17.8689   10.1278   12.4846 C   0  0  0  0  0  0  0  0  0  0  0  0
   17.2910   11.3648   12.4326 N   0  0  0  0  0  0  0  0  0  0  0  0
   15.9865   11.3613   12.1156 C   0  0  0  0  0  0  0  0  0  0  0  0
   15.1755   12.4521   11.9850 N   0  0  0  0  0  0  0  0  0  0  0  0
   13.9211   12.0301   11.6397 C   0  0  0  0  0  0  0  0  0  0  0  0
   12.8722   12.8349   11.4226 F   0  0  0  0  0  0  0  0  0  0  0  0
   13.9002   10.6544   11.5453 C   0  0  0  0  0  0  0  0  0  0  0  0
   15.2174   10.2441   11.8569 C   0  0  0  0  0  0  0  0  0  0  0  0
   15.8067    9.0143   11.9231 C   0  0  0  0  0  0  0  0  0  0  0  0
   15.3717    7.7445   11.7474 N   0  0  0  0  0  0  0  0  0  0  0  0
   15.4488   13.3885   12.1176 H   0  0  0  0  0  0  0  0  0  0  0  0
   14.0423    7.2132   11.4648 C   0  0  0  0  0  0  0  0  0  0  0  0
   13.6913    7.1516    9.9690 C   0  0  0  0  0  0  0  0  0  0  0  0
   12.1824    7.2193    9.7336 C   0  0  0  0  0  0  0  0  0  0  0  0
   11.4758    6.4815   10.7710 N   0  0  0  0  0  0  0  0  0  0  0  0
   11.5995    7.1025   12.0914 C   0  0  0  0  0  0  0  0  0  0  0  0
   12.9325    7.8203   12.3296 C   0  0  0  0  0  0  0  0  0  0  0  0
   11.8584    5.5371   10.8177 H   0  0  0  0  0  0  0  0  0  0  0  0
  1  2  1  0
  2  3  2  0
  3  4  1  0
  4  5  2  0
  5  6  1  0
  6  7  2  0
  7  8  1  0
  8  9  1  0
  9 10  1  0
  9 11  2  0
 11 12  1  0
 12 13  2  0
 13 14  1  0
 14 16  1  0
 16 17  1  0
 17 18  1  0
 18 19  1  0
 19 20  1  0
 20 21  1  0
 14  2  1  0
 21 16  1  0
 13  4  1  0
 12  7  1  0
  8 15  1  0
 19 22  1  0
M  END
> <minimizedAffinity>
-7.46467

> <CNNscore>
0.9755044580

> <CNNaffinity>
7.4123883247

> <CNN_VS>
7.2308177948

> <CNNaffinity_variance>
0.0784866735

$$$$



 22 25  0  0  0  0  0  0  0  0999 V2000
   11.7577    8.1212   10.0718 C   0  0  0  0  0  0  0  0  0  0  0  0
   12.8633    8.9783   10.5814 C   0  0  0  0  0  0  0  0  0  0  0  0
   12.7920   10.2934   10.6591 N   0  0  0  0  0  0  0  0  0  0  0  0
   13.9883   10.6982   11.1781 C   0  0  0  0  0  0  0  0  0  0  0  0
   14.4700   11.9849   11.4800 C   0  0  0  0  0  0  0  0  0  0  0  0
   15.7102   12.2064   12.0088 N   0  0  0  0  0  0  0  0  0  0  0  0
   16.4335   11.0965   12.2259 C   0  0  0  0  0  0  0  0  0  0  0  0
   17.6916   11.0323   12.7530 N   0  0  0  0  0  0  0  0  0  0  0  0
   18.0732    9.7209   12.8251 C   0  0  0  0  0  0  0  0  0  0  0  0
   19.2487    9.2875   13.2998 F   0  0  0  0  0  0  0  0  0  0  0  0
   17.0658    8.9136   12.3400 C   0  0  0  0  0  0  0  0  0  0  0  0
   16.0342    9.8023   11.9572 C   0  0  0  0  0  0  0  0  0  0  0  0
   14.7961    9.5979   11.4191 C   0  0  0  0  0  0  0  0  0  0  0  0
   14.1012    8.5034   11.0296 N   0  0  0  0  0  0  0  0  0  0  0  0
   18.2348   11.8035   13.0349 H   0  0  0  0  0  0  0  0  0  0  0  0
   14.4692    7.0918   10.9955 C   0  0  0  0  0  0  0  0  0  0  0  0
   13.9433    6.3311    9.7671 C   0  0  0  0  0  0  0  0  0  0  0  0
   13.7758    4.8380   10.0489 C   0  0  0  0  0  0  0  0  0  0  0  0
   14.8515    4.3624   10.9072 N   0  0  0  0  0  0  0  0  0  0  0  0
   14.7919    4.9287   12.2562 C   0  0  0  0  0  0  0  0  0  0  0  0
   14.2346    6.3551   12.3186 C   0  0  0  0  0  0  0  0  0  0  0  0
   15.7437    4.6194   10.4847 H   0  0  0  0  0  0  0  0  0  0  0  0
  1  2  1  0
  2  3  2  0
  3  4  1  0
  4  5  2  0
  5  6  1  0
  6  7  2  0
  7  8  1  0
  8  9  1  0
  9 10  1  0
  9 11  2  0
 11 12  1  0
 12 13  2  0
 13 14  1  0
 14 16  1  0
 16 17  1  0
 17 18  1  0
 18 19  1  0
 19 20  1  0
 20 21  1  0
 14  2  1  0
 21 16  1  0
 13  4  1  0
 12  7  1  0
  8 15  1  0
 19 22  1  0
M  END
> <minimizedAffinity>
-8.48116

> <CNNscore>
0.9691243768

> <CNNaffinity>
7.0495581627

> <CNN_VS>
6.8318986893

> <CNNaffinity_variance>
0.0588002391

$$$$



 22 25  0  0  0  0  0  0  0  0999 V2000
   18.9341    8.6475   13.0348 C   0  0  0  0  0  0  0  0  0  0  0  0
   17.6851    9.3324   12.6017 C   0  0  0  0  0  0  0  0  0  0  0  0
   17.4940   10.6341   12.6994 N   0  0  0  0  0  0  0  0  0  0  0  0
   16.2463   10.8633   12.1943 C   0  0  0  0  0  0  0  0  0  0  0  0
   15.5211   12.0595   12.0460 C   0  0  0  0  0  0  0  0  0  0  0  0
   14.2669   12.1033   11.5057 N   0  0  0  0  0  0  0  0  0  0  0  0
   13.7812   10.9131   11.1189 C   0  0  0  0  0  0  0  0  0  0  0  0
   12.5664   10.6757   10.5422 N   0  0  0  0  0  0  0  0  0  0  0  0
   12.4542    9.3370   10.2851 C   0  0  0  0  0  0  0  0  0  0  0  0
   11.3933    8.7503    9.7151 F   0  0  0  0  0  0  0  0  0  0  0  0
   13.5973    8.6846   10.6969 C   0  0  0  0  0  0  0  0  0  0  0  0
   14.4275    9.6980   11.2304 C   0  0  0  0  0  0  0  0  0  0  0  0
   15.6760    9.6691   11.7820 C   0  0  0  0  0  0  0  0  0  0  0  0
   16.5711    8.6895   12.0501 N   0  0  0  0  0  0  0  0  0  0  0  0
   11.8834   11.3565   10.3439 H   0  0  0  0  0  0  0  0  0  0  0  0
   16.4910    7.2417   11.8856 C   0  0  0  0  0  0  0  0  0  0  0  0
   15.4687    6.7808   10.8337 C   0  0  0  0  0  0  0  0  0  0  0  0
   14.9529    5.3703   11.1187 C   0  0  0  0  0  0  0  0  0  0  0  0
   16.0270    4.5350   11.6369 N   0  0  0  0  0  0  0  0  0  0  0  0
   16.4844    4.9584   12.9620 C   0  0  0  0  0  0  0  0  0  0  0  0
   16.4016    6.4692   13.2060 C   0  0  0  0  0  0  0  0  0  0  0  0
   16.8149    4.5787   10.9906 H   0  0  0  0  0  0  0  0  0  0  0  0
  1  2  1  0
  2  3  2  0
  3  4  1  0
  4  5  2  0
  5  6  1  0
  6  7  2  0
  7  8  1  0
  8  9  1  0
  9 10  1  0
  9 11  2  0
 11 12  1  0
 12 13  2  0
 13 14  1  0
 14 16  1  0
 16 17  1  0
 17 18  1  0
 18 19  1  0
 19 20  1  0
 20 21  1  0
 14  2  1  0
 21 16  1  0
 13  4  1  0
 12  7  1  0
  8 15  1  0
 19 22  1  0
M  END
> <minimizedAffinity>
-8.27056

> <CNNscore>
0.9226664901

> <CNNaffinity>
7.0391240120

> <CNN_VS>
6.4947638512

> <CNNaffinity_variance>
0.0082475217

$$$$



 22 25  0  0  0  0  0  0  0  0999 V2000
   17.5158    5.5763   13.2428 C   0  0  0  0  0  0  0  0  0  0  0  0
   16.9935    6.9080   12.8300 C   0  0  0  0  0  0  0  0  0  0  0  0
   17.6605    8.0354   12.9874 N   0  0  0  0  0  0  0  0  0  0  0  0
   16.8552    9.0149   12.4811 C   0  0  0  0  0  0  0  0  0  0  0  0
   17.0505   10.4045   12.3824 C   0  0  0  0  0  0  0  0  0  0  0  0
   16.1248   11.2454   11.8320 N   0  0  0  0  0  0  0  0  0  0  0  0
   15.0134   10.6399   11.3844 C   0  0  0  0  0  0  0  0  0  0  0  0
   13.9428   11.2390   10.7847 N   0  0  0  0  0  0  0  0  0  0  0  0
   13.0231   10.2790   10.4633 C   0  0  0  0  0  0  0  0  0  0  0  0
   11.8518   10.5098    9.8554 F   0  0  0  0  0  0  0  0  0  0  0  0
   13.4844    9.0399   10.8554 C   0  0  0  0  0  0  0  0  0  0  0  0
   14.7464    9.2865   11.4446 C   0  0  0  0  0  0  0  0  0  0  0  0
   15.6766    8.4604   12.0069 C   0  0  0  0  0  0  0  0  0  0  0  0
   15.7450    7.1282   12.2373 N   0  0  0  0  0  0  0  0  0  0  0  0
   13.8484   12.2036   10.6121 H   0  0  0  0  0  0  0  0  0  0  0  0
   14.7781    6.0605   12.0035 C   0  0  0  0  0  0  0  0  0  0  0  0
   14.9552    4.8365   12.9172 C   0  0  0  0  0  0  0  0  0  0  0  0
   14.4139    3.5603   12.2729 C   0  0  0  0  0  0  0  0  0  0  0  0
   13.2028    3.8499   11.5184 N   0  0  0  0  0  0  0  0  0  0  0  0
   13.4533    4.6919   10.3469 C   0  0  0  0  0  0  0  0  0  0  0  0
   14.5940    5.6999   10.5256 C   0  0  0  0  0  0  0  0  0  0  0  0
   12.5442    4.3310   12.1310 H   0  0  0  0  0  0  0  0  0  0  0  0
  1  2  1  0
  2  3  2  0
  3  4  1  0
  4  5  2  0
  5  6  1  0
  6  7  2  0
  7  8  1  0
  8  9  1  0
  9 10  1  0
  9 11  2  0
 11 12  1  0
 12 13  2  0
 13 14  1  0
 14 16  1  0
 16 17  1  0
 17 18  1  0
 18 19  1  0
 19 20  1  0
 20 21  1  0
 14  2  1  0
 21 16  1  0
 13  4  1  0
 12  7  1  0
  8 15  1  0
 19 22  1  0
M  END
> <minimizedAffinity>
-7.39689

> <CNNscore>
0.9164525270

> <CNNaffinity>
7.0223870277

> <CNN_VS>
6.4356842041

> <CNNaffinity_variance>
0.1507691294

$$$$



 22 25  0  0  0  0  0  0  0  0999 V2000
   12.6670   11.4739   10.8790 C   0  0  0  0  0  0  0  0  0  0  0  0
   13.9203   10.7899   11.3009 C   0  0  0  0  0  0  0  0  0  0  0  0
   15.0177   11.4297   11.6571 N   0  0  0  0  0  0  0  0  0  0  0  0
   15.9238   10.4595   11.9768 C   0  0  0  0  0  0  0  0  0  0  0  0
   17.2546   10.5567   12.4220 C   0  0  0  0  0  0  0  0  0  0  0  0
   18.0230    9.4627   12.7044 N   0  0  0  0  0  0  0  0  0  0  0  0
   17.4052    8.2836   12.5305 C   0  0  0  0  0  0  0  0  0  0  0  0
   17.9353    7.0444   12.7495 N   0  0  0  0  0  0  0  0  0  0  0  0
   16.9841    6.1021   12.4702 C   0  0  0  0  0  0  0  0  0  0  0  0
   17.1575    4.7784   12.5820 F   0  0  0  0  0  0  0  0  0  0  0  0
   15.8209    6.7194   12.0606 C   0  0  0  0  0  0  0  0  0  0  0  0
   16.1063    8.1042   12.0977 C   0  0  0  0  0  0  0  0  0  0  0  0
   15.3545    9.2068   11.8096 C   0  0  0  0  0  0  0  0  0  0  0  0
   14.0906    9.4022   11.3656 N   0  0  0  0  0  0  0  0  0  0  0  0
   18.8518    6.8595   13.0579 H   0  0  0  0  0  0  0  0  0  0  0  0
   13.0536    8.4560   10.9674 C   0  0  0  0  0  0  0  0  0  0  0  0
   12.3378    7.7710   12.1434 C   0  0  0  0  0  0  0  0  0  0  0  0
   11.7691    6.4078   11.7496 C   0  0  0  0  0  0  0  0  0  0  0  0
   11.2515    6.4504   10.3893 N   0  0  0  0  0  0  0  0  0  0  0  0
   12.3044    6.6344    9.3885 C   0  0  0  0  0  0  0  0  0  0  0  0
   13.4876    7.4842    9.8650 C   0  0  0  0  0  0  0  0  0  0  0  0
   10.5923    7.2253   10.3153 H   0  0  0  0  0  0  0  0  0  0  0  0
  1  2  1  0
  2  3  2  0
  3  4  1  0
  4  5  2  0
  5  6  1  0
  6  7  2  0
  7  8  1  0
  8  9  1  0
  9 10  1  0
  9 11  2  0
 11 12  1  0
 12 13  2  0
 13 14  1  0
 14 16  1  0
 16 17  1  0
 17 18  1  0
 18 19  1  0
 19 20  1  0
 20 21  1  0
 14  2  1  0
 21 16  1  0
 13  4  1  0
 12  7  1  0
  8 15  1  0
 19 22  1  0
M  END
> <minimizedAffinity>
-7.96983

> <CNNscore>
0.8594843745

> <CNNaffinity>
6.9296107292

> <CNN_VS>
5.9558920860

> <CNNaffinity_variance>
0.0763811916

$$$$



 22 25  0  0  0  0  0  0  0  0999 V2000
   11.6196    6.3479   10.1135 C   0  0  0  0  0  0  0  0  0  0  0  0
   12.4355    7.5498   10.4392 C   0  0  0  0  0  0  0  0  0  0  0  0
   12.0018    8.7878   10.2978 N   0  0  0  0  0  0  0  0  0  0  0  0
   13.0298    9.5884   10.7059 C   0  0  0  0  0  0  0  0  0  0  0  0
   13.1312   10.9898   10.7737 C   0  0  0  0  0  0  0  0  0  0  0  0
   14.2520   11.6306   11.2208 N   0  0  0  0  0  0  0  0  0  0  0  0
   15.2502   10.8165   11.5990 C   0  0  0  0  0  0  0  0  0  0  0  0
   16.4671   11.1916   12.0918 N   0  0  0  0  0  0  0  0  0  0  0  0
   17.1953   10.0680   12.3710 C   0  0  0  0  0  0  0  0  0  0  0  0
   18.4361   10.0623   12.8764 F   0  0  0  0  0  0  0  0  0  0  0  0
   16.4595    8.9444   12.0581 C   0  0  0  0  0  0  0  0  0  0  0  0
   15.2294    9.4363   11.5627 C   0  0  0  0  0  0  0  0  0  0  0  0
   14.1061    8.8106   11.1036 C   0  0  0  0  0  0  0  0  0  0  0  0
   13.7482    7.5175   10.9236 N   0  0  0  0  0  0  0  0  0  0  0  0
   16.7706   12.1188   12.2243 H   0  0  0  0  0  0  0  0  0  0  0  0
   14.4930    6.2774   11.1154 C   0  0  0  0  0  0  0  0  0  0  0  0
   14.1557    5.1741   10.0989 C   0  0  0  0  0  0  0  0  0  0  0  0
   14.4206    3.7781   10.6629 C   0  0  0  0  0  0  0  0  0  0  0  0
   15.6162    3.7876   11.4938 N   0  0  0  0  0  0  0  0  0  0  0  0
   15.4497    4.5762   12.7163 C   0  0  0  0  0  0  0  0  0  0  0  0
   14.5202    5.7856   12.5665 C   0  0  0  0  0  0  0  0  0  0  0  0
   16.3858    4.1825   10.9533 H   0  0  0  0  0  0  0  0  0  0  0  0
  1  2  1  0
  2  3  2  0
  3  4  1  0
  4  5  2  0
  5  6  1  0
  6  7  2  0
  7  8  1  0
  8  9  1  0
  9 10  1  0
  9 11  2  0
 11 12  1  0
 12 13  2  0
 13 14  1  0
 14 16  1  0
 16 17  1  0
 17 18  1  0
 18 19  1  0
 19 20  1  0
 20 21  1  0
 14  2  1  0
 21 16  1  0
 13  4  1  0
 12  7  1  0
  8 15  1  0
 19 22  1  0
M  END
> <minimizedAffinity>
-7.82257

> <CNNscore>
0.7332938910

> <CNNaffinity>
6.6535868645

> <CNN_VS>
4.8790345192

> <CNNaffinity_variance>
0.0133948065

$$$$



 22 25  0  0  0  0  0  0  0  0999 V2000
   15.1319    4.2820   11.4452 C   0  0  0  0  0  0  0  0  0  0  0  0
   15.8234    5.5568   11.7815 C   0  0  0  0  0  0  0  0  0  0  0  0
   17.0596    5.6192   12.2381 N   0  0  0  0  0  0  0  0  0  0  0  0
   17.3229    6.9478   12.4114 C   0  0  0  0  0  0  0  0  0  0  0  0
   18.4800    7.6023   12.8715 C   0  0  0  0  0  0  0  0  0  0  0  0
   18.5699    8.9616   12.9765 N   0  0  0  0  0  0  0  0  0  0  0  0
   17.4672    9.6273   12.5982 C   0  0  0  0  0  0  0  0  0  0  0  0
   17.2934   10.9817   12.5923 N   0  0  0  0  0  0  0  0  0  0  0  0
   16.0388   11.2633   12.1259 C   0  0  0  0  0  0  0  0  0  0  0  0
   15.5317   12.4947   11.9799 F   0  0  0  0  0  0  0  0  0  0  0  0
   15.3777   10.0909   11.8258 C   0  0  0  0  0  0  0  0  0  0  0  0
   16.2954    9.0607   12.1375 C   0  0  0  0  0  0  0  0  0  0  0  0
   16.2172    7.7006   12.0481 C   0  0  0  0  0  0  0  0  0  0  0  0
   15.2546    6.8301   11.6630 N   0  0  0  0  0  0  0  0  0  0  0  0
   17.9615   11.6464   12.8769 H   0  0  0  0  0  0  0  0  0  0  0  0
   13.8754    7.0467   11.2384 C   0  0  0  0  0  0  0  0  0  0  0  0
   13.7184    8.0626   10.0949 C   0  0  0  0  0  0  0  0  0  0  0  0
   12.3424    8.7284   10.1079 C   0  0  0  0  0  0  0  0  0  0  0  0
   11.3197    7.7669   10.4944 N   0  0  0  0  0  0  0  0  0  0  0  0
   11.4516    7.3284   11.8853 C   0  0  0  0  0  0  0  0  0  0  0  0
   12.8958    7.2708   12.3953 C   0  0  0  0  0  0  0  0  0  0  0  0
   11.3930    6.9508    9.8869 H   0  0  0  0  0  0  0  0  0  0  0  0
  1  2  1  0
  2  3  2  0
  3  4  1  0
  4  5  2  0
  5  6  1  0
  6  7  2  0
  7  8  1  0
  8  9  1  0
  9 10  1  0
  9 11  2  0
 11 12  1  0
 12 13  2  0
 13 14  1  0
 14 16  1  0
 16 17  1  0
 17 18  1  0
 18 19  1  0
 19 20  1  0
 20 21  1  0
 14  2  1  0
 21 16  1  0
 13  4  1  0
 12  7  1  0
  8 15  1  0
 19 22  1  0
M  END
> <minimizedAffinity>
-7.90094

> <CNNscore>
0.2952670753

> <CNNaffinity>
4.9434242249

> <CNN_VS>
1.4596303701

> <CNNaffinity_variance>
1.2885340452

$$$$



 22 25  0  0  0  0  0  0  0  0999 V2000
    2.3791    1.7212    1.8062 C   0  0  0  0  0  0  0  0  0  0  0  0
    3.2837    2.5475    2.6520 C   0  0  0  0  0  0  0  0  0  0  0  0
    3.5178    3.8279    2.4369 N   0  0  0  0  0  0  0  0  0  0  0  0
    4.3803    4.2163    3.4217 C   0  0  0  0  0  0  0  0  0  0  0  0
    4.9664    5.4670    3.6884 C   0  0  0  0  0  0  0  0  0  0  0  0
    5.8151    5.6787    4.7380 N   0  0  0  0  0  0  0  0  0  0  0  0
    6.0416    4.5986    5.5025 C   0  0  0  0  0  0  0  0  0  0  0  0
    6.8341    4.5362    6.6127 N   0  0  0  0  0  0  0  0  0  0  0  0
    6.7910    3.2646    7.1145 C   0  0  0  0  0  0  0  0  0  0  0  0
    7.4460    2.8464    8.2058 F   0  0  0  0  0  0  0  0  0  0  0  0
    5.9700    2.4807    6.3313 C   0  0  0  0  0  0  0  0  0  0  0  0
    5.5072    3.3403    5.3079 C   0  0  0  0  0  0  0  0  0  0  0  0
    4.6690    3.1420    4.2486 C   0  0  0  0  0  0  0  0  0  0  0  0
    3.9934    2.0747    3.7618 N   0  0  0  0  0  0  0  0  0  0  0  0
    7.3517    5.2839    6.9900 H   0  0  0  0  0  0  0  0  0  0  0  0
    3.9642    0.6790    4.1866 C   0  0  0  0  0  0  0  0  0  0  0  0
    2.6493   -0.0513    3.8674 C   0  0  0  0  0  0  0  0  0  0  0  0
    2.3937   -1.2127    4.8280 C   0  0  0  0  0  0  0  0  0  0  0  0
    3.6443   -1.8836    5.1533 N   0  0  0  0  0  0  0  0  0  0  0  0
    4.5507   -1.0423    5.9375 C   0  0  0  0  0  0  0  0  0  0  0  0
    4.4571    0.4542    5.6201 C   0  0  0  0  0  0  0  0  0  0  0  0
    4.1106   -2.1435    4.2842 H   0  0  0  0  0  0  0  0  0  0  0  0
  1  2  1  0
  2  3  2  0
  3  4  1  0
  4  5  2  0
  5  6  1  0
  6  7  2  0
  7  8  1  0
  8  9  1  0
  9 10  1  0
  9 11  2  0
 11 12  1  0
 12 13  2  0
 13 14  1  0
 14 16  1  0
 16 17  1  0
 17 18  1  0
 18 19  1  0
 19 20  1  0
 20 21  1  0
 14  2  1  0
 21 16  1  0
 13  4  1  0
 12  7  1  0
  8 15  1  0
 19 22  1  0
M  END
> <minimizedAffinity>
-7.34983

> <CNNscore>
0.2250556350

> <CNNaffinity>
4.7749471664

> <CNN_VS>
1.0746287107

> <CNNaffinity_variance>
0.3490225375

$$$$



 22 25  0  0  0  0  0  0  0  0999 V2000
   14.9820   11.4803   11.6671 C   0  0  0  0  0  0  0  0  0  0  0  0
   16.0264   10.4677   11.9843 C   0  0  0  0  0  0  0  0  0  0  0  0
   17.2274   10.7736   12.4365 N   0  0  0  0  0  0  0  0  0  0  0  0
   17.8720    9.5823   12.6085 C   0  0  0  0  0  0  0  0  0  0  0  0
   19.1713    9.2990   13.0672 C   0  0  0  0  0  0  0  0  0  0  0  0
   19.6549    8.0264   13.1832 N   0  0  0  0  0  0  0  0  0  0  0  0
   18.7886    7.0632   12.8312 C   0  0  0  0  0  0  0  0  0  0  0  0
   19.0094    5.7160   12.8618 N   0  0  0  0  0  0  0  0  0  0  0  0
   17.8777    5.0738   12.4404 C   0  0  0  0  0  0  0  0  0  0  0  0
   17.7363    3.7446   12.3513 F   0  0  0  0  0  0  0  0  0  0  0  0
   16.9050    5.9994   12.1254 C   0  0  0  0  0  0  0  0  0  0  0  0
   17.5009    7.2581   12.3723 C   0  0  0  0  0  0  0  0  0  0  0  0
   17.0356    8.5360   12.2520 C   0  0  0  0  0  0  0  0  0  0  0  0
   15.8690    9.0847   11.8390 N   0  0  0  0  0  0  0  0  0  0  0  0
   19.8459    5.2786   13.1414 H   0  0  0  0  0  0  0  0  0  0  0  0
   14.6575    8.4762   11.2992 C   0  0  0  0  0  0  0  0  0  0  0  0
   13.9750    9.2996   10.1944 C   0  0  0  0  0  0  0  0  0  0  0  0
   12.4762    9.0112   10.1108 C   0  0  0  0  0  0  0  0  0  0  0  0
   12.2192    7.5992   10.3561 N   0  0  0  0  0  0  0  0  0  0  0  0
   12.5234    7.1990   11.7314 C   0  0  0  0  0  0  0  0  0  0  0  0
   13.6874    7.9651   12.3696 C   0  0  0  0  0  0  0  0  0  0  0  0
   12.7958    7.0476    9.7208 H   0  0  0  0  0  0  0  0  0  0  0  0
  1  2  1  0
  2  3  2  0
  3  4  1  0
  4  5  2  0
  5  6  1  0
  6  7  2  0
  7  8  1  0
  8  9  1  0
  9 10  1  0
  9 11  2  0
 11 12  1  0
 12 13  2  0
 13 14  1  0
 14 16  1  0
 16 17  1  0
 17 18  1  0
 18 19  1  0
 19 20  1  0
 20 21  1  0
 14  2  1  0
 21 16  1  0
 13  4  1  0
 12  7  1  0
  8 15  1  0
 19 22  1  0
M  END
> <minimizedAffinity>
-6.58162

> <CNNscore>
0.2193324417

> <CNNaffinity>
5.8648891449

> <CNN_VS>
1.2863605022

> <CNNaffinity_variance>
0.0646947548

$$$$
