


 35 39  0  0  0  0  0  0  0  0999 V2000
   18.3369  -11.7820   19.8379 C   0  0  0  0  0  0  0  0  0  0  0  0
   19.4050  -12.0657   20.9082 C   0  0  0  0  0  0  0  0  0  0  0  0
   18.9765  -12.9112   22.0759 C   0  0  0  0  0  0  0  0  0  0  0  0
   18.2965  -12.5103   23.0115 O   0  0  0  0  0  0  0  0  0  0  0  0
   19.4716  -14.1712   21.9210 N   0  0  0  0  0  0  0  0  0  0  0  0
   20.3074  -14.2801   20.8495 C   0  0  0  0  0  0  0  0  0  0  0  0
   20.8738  -15.2951   20.4724 O   0  0  0  0  0  0  0  0  0  0  0  0
   20.4675  -12.9201   20.2213 C   0  0  0  0  0  0  0  0  0  0  0  0
   20.1156  -12.9413   18.7523 C   0  0  0  0  0  0  0  0  0  0  0  0
   20.7557  -11.8310   17.9335 C   0  0  0  0  0  0  0  0  0  0  0  0
   19.7766  -11.6605   16.7881 C   0  0  0  0  0  0  0  0  0  0  0  0
   18.4176  -12.0163   17.3831 C   0  0  0  0  0  0  0  0  0  0  0  0
   18.6728  -12.6522   18.6881 N   0  0  0  0  0  0  0  0  0  0  0  0
   14.2127  -12.1723   21.1833 C   0  0  0  0  0  0  0  0  0  0  0  0
   14.9117  -13.2920   20.7178 C   0  0  0  0  0  0  0  0  0  0  0  0
   16.2344  -13.1744   20.2832 C   0  0  0  0  0  0  0  0  0  0  0  0
   16.8891  -11.9326   20.2818 C   0  0  0  0  0  0  0  0  0  0  0  0
   16.1795  -10.8098   20.7333 C   0  0  0  0  0  0  0  0  0  0  0  0
   14.8595  -10.9282   21.1825 C   0  0  0  0  0  0  0  0  0  0  0  0
   12.3783  -13.4866   22.0142 N   0  0  0  0  0  0  0  0  0  0  0  0
   12.8334  -12.3032   21.6674 C   0  0  0  0  0  0  0  0  0  0  0  0
   12.0749  -11.2303   21.7400 N   0  0  0  0  0  0  0  0  0  0  0  0
   11.4542  -13.5825   22.3399 H   0  0  0  0  0  0  0  0  0  0  0  0
   12.9615  -14.2770   21.9482 H   0  0  0  0  0  0  0  0  0  0  0  0
   11.1478  -11.3039   22.0630 H   0  0  0  0  0  0  0  0  0  0  0  0
   12.4346  -10.3541   21.4714 H   0  0  0  0  0  0  0  0  0  0  0  0
   19.1534  -15.2725   22.8047 C   0  0  0  0  0  0  0  0  0  0  0  0
   20.3154  -15.5747   23.7246 C   0  0  0  0  0  0  0  0  0  0  0  0
   20.9559  -16.8246   23.6806 C   0  0  0  0  0  0  0  0  0  0  0  0
   21.9802  -17.1281   24.5815 C   0  0  0  0  0  0  0  0  0  0  0  0
   22.3531  -16.1882   25.5342 C   0  0  0  0  0  0  0  0  0  0  0  0
   23.2963  -16.4914   26.4359 F   0  0  0  0  0  0  0  0  0  0  0  0
   21.7247  -14.9513   25.5860 C   0  0  0  0  0  0  0  0  0  0  0  0
   22.0471  -14.0752   26.5515 F   0  0  0  0  0  0  0  0  0  0  0  0
   20.7135  -14.6346   24.6880 C   0  0  0  0  0  0  0  0  0  0  0  0
 20 21  1  0
 21 22  2  0
 21 14  1  0
 14 15  2  0
 15 16  1  0
 16 17  2  0
  1 17  1  0
  1  2  1  0
  2  3  1  0
  3  4  2  0
  3  5  1  0
  5 27  1  0
 27 28  1  0
 28 29  2  0
 29 30  1  0
 30 31  2  0
 31 32  1  0
 31 33  1  0
 33 34  1  0
 33 35  2  0
  5  6  1  0
  6  7  2  0
  8  6  1  0
  8  9  1  0
  9 10  1  0
 10 11  1  0
 11 12  1  0
 12 13  1  0
 17 18  1  0
 18 19  2  0
 19 14  1  0
 13  1  1  0
  8  2  1  0
 13  9  1  0
 35 28  1  0
 20 23  1  0
 20 24  1  0
 22 25  1  0
 22 26  1  0
M  CHG 1  22   1
M  END
> <minimizedAffinity>
-7.91404

> <CNNscore>
0.7968893051

> <CNNaffinity>
7.1221566200

> <CNN_VS>
5.6755704880

> <CNNaffinity_variance>
0.1374756098

$$$$



 35 39  0  0  0  0  0  0  0  0999 V2000
   16.5519  -13.7235   19.1106 C   0  0  0  0  0  0  0  0  0  0  0  0
   15.6556  -12.4732   19.0911 C   0  0  0  0  0  0  0  0  0  0  0  0
   14.1772  -12.7053   19.2413 C   0  0  0  0  0  0  0  0  0  0  0  0
   13.4443  -13.1157   18.3509 O   0  0  0  0  0  0  0  0  0  0  0  0
   13.8002  -12.3795   20.5096 N   0  0  0  0  0  0  0  0  0  0  0  0
   14.8124  -11.8211   21.2323 C   0  0  0  0  0  0  0  0  0  0  0  0
   14.7544  -11.4530   22.3961 O   0  0  0  0  0  0  0  0  0  0  0  0
   16.0200  -11.6789   20.3428 C   0  0  0  0  0  0  0  0  0  0  0  0
   17.2328  -12.3535   20.9398 C   0  0  0  0  0  0  0  0  0  0  0  0
   18.5647  -11.8124   20.4435 C   0  0  0  0  0  0  0  0  0  0  0  0
   19.4873  -13.0041   20.6121 C   0  0  0  0  0  0  0  0  0  0  0  0
   18.5903  -14.2212   20.4085 C   0  0  0  0  0  0  0  0  0  0  0  0
   17.1977  -13.7395   20.4428 N   0  0  0  0  0  0  0  0  0  0  0  0
   14.5350  -17.4517   18.1085 C   0  0  0  0  0  0  0  0  0  0  0  0
   14.8552  -17.1586   19.4392 C   0  0  0  0  0  0  0  0  0  0  0  0
   15.5035  -15.9653   19.7682 C   0  0  0  0  0  0  0  0  0  0  0  0
   15.8684  -15.0414   18.7763 C   0  0  0  0  0  0  0  0  0  0  0  0
   15.5606  -15.3466   17.4421 C   0  0  0  0  0  0  0  0  0  0  0  0
   14.8986  -16.5345   17.1122 C   0  0  0  0  0  0  0  0  0  0  0  0
   13.2195  -19.3712   18.7149 N   0  0  0  0  0  0  0  0  0  0  0  0
   13.8274  -18.6916   17.7681 C   0  0  0  0  0  0  0  0  0  0  0  0
   13.8198  -19.1030   16.5182 N   0  0  0  0  0  0  0  0  0  0  0  0
   12.7428  -20.2039   18.4946 H   0  0  0  0  0  0  0  0  0  0  0  0
   13.2411  -19.0475   19.6445 H   0  0  0  0  0  0  0  0  0  0  0  0
   13.3490  -19.9330   16.2760 H   0  0  0  0  0  0  0  0  0  0  0  0
   14.2849  -18.5807   15.8253 H   0  0  0  0  0  0  0  0  0  0  0  0
   12.4665  -12.5929   21.0300 C   0  0  0  0  0  0  0  0  0  0  0  0
   12.0857  -11.4931   21.9961 C   0  0  0  0  0  0  0  0  0  0  0  0
   12.1598  -10.1443   21.6093 C   0  0  0  0  0  0  0  0  0  0  0  0
   11.8790   -9.1277   22.5262 C   0  0  0  0  0  0  0  0  0  0  0  0
   11.5388   -9.4597   23.8317 C   0  0  0  0  0  0  0  0  0  0  0  0
   11.3213   -8.4906   24.7306 F   0  0  0  0  0  0  0  0  0  0  0  0
   11.4648  -10.7898   24.2230 C   0  0  0  0  0  0  0  0  0  0  0  0
   11.1995  -11.0984   25.5028 F   0  0  0  0  0  0  0  0  0  0  0  0
   11.7304  -11.8084   23.3169 C   0  0  0  0  0  0  0  0  0  0  0  0
 20 21  1  0
 21 22  2  0
 21 14  1  0
 14 15  2  0
 15 16  1  0
 16 17  2  0
  1 17  1  0
  1  2  1  0
  2  3  1  0
  3  4  2  0
  3  5  1  0
  5 27  1  0
 27 28  1  0
 28 29  2  0
 29 30  1  0
 30 31  2  0
 31 32  1  0
 31 33  1  0
 33 34  1  0
 33 35  2  0
  5  6  1  0
  6  7  2  0
  8  6  1  0
  8  9  1  0
  9 10  1  0
 10 11  1  0
 11 12  1  0
 12 13  1  0
 17 18  1  0
 18 19  2  0
 19 14  1  0
 13  1  1  0
  8  2  1  0
 13  9  1  0
 35 28  1  0
 20 23  1  0
 20 24  1  0
 22 25  1  0
 22 26  1  0
M  CHG 1  22   1
M  END
> <minimizedAffinity>
-7.73534

> <CNNscore>
0.7740508318

> <CNNaffinity>
7.3605308533

> <CNN_VS>
5.6974248886

> <CNNaffinity_variance>
0.2273010612

$$$$



 35 39  0  0  0  0  0  0  0  0999 V2000
   15.3898  -11.5006   19.5214 C   0  0  0  0  0  0  0  0  0  0  0  0
   16.5943  -12.3410   19.9797 C   0  0  0  0  0  0  0  0  0  0  0  0
   16.3924  -13.1902   21.2046 C   0  0  0  0  0  0  0  0  0  0  0  0
   16.3869  -12.7642   22.3521 O   0  0  0  0  0  0  0  0  0  0  0  0
   16.2286  -14.4889   20.8260 N   0  0  0  0  0  0  0  0  0  0  0  0
   16.4215  -14.6757   19.4894 C   0  0  0  0  0  0  0  0  0  0  0  0
   16.3213  -15.7322   18.8835 O   0  0  0  0  0  0  0  0  0  0  0  0
   16.8344  -13.3646   18.8728 C   0  0  0  0  0  0  0  0  0  0  0  0
   15.9270  -12.9782   17.7284 C   0  0  0  0  0  0  0  0  0  0  0  0
   16.5528  -12.0275   16.7196 C   0  0  0  0  0  0  0  0  0  0  0  0
   15.3445  -11.3077   16.1525 C   0  0  0  0  0  0  0  0  0  0  0  0
   14.3402  -11.2716   17.3003 C   0  0  0  0  0  0  0  0  0  0  0  0
   14.8376  -12.1949   18.3360 N   0  0  0  0  0  0  0  0  0  0  0  0
   12.4257  -10.6777   22.6049 C   0  0  0  0  0  0  0  0  0  0  0  0
   12.3033  -11.8116   21.7936 C   0  0  0  0  0  0  0  0  0  0  0  0
   13.2494  -12.0815   20.8014 C   0  0  0  0  0  0  0  0  0  0  0  0
   14.3321  -11.2164   20.5778 C   0  0  0  0  0  0  0  0  0  0  0  0
   14.4419  -10.0721   21.3820 C   0  0  0  0  0  0  0  0  0  0  0  0
   13.5034   -9.8078   22.3857 C   0  0  0  0  0  0  0  0  0  0  0  0
   11.3235   -9.1926   24.1418 N   0  0  0  0  0  0  0  0  0  0  0  0
   11.4476  -10.4117   23.6663 C   0  0  0  0  0  0  0  0  0  0  0  0
   10.7152  -11.4034   24.1263 N   0  0  0  0  0  0  0  0  0  0  0  0
   10.6696   -9.0062   24.8539 H   0  0  0  0  0  0  0  0  0  0  0  0
   11.8843   -8.4659   23.7860 H   0  0  0  0  0  0  0  0  0  0  0  0
   10.0553  -11.2389   24.8382 H   0  0  0  0  0  0  0  0  0  0  0  0
   10.8271  -12.3098   23.7587 H   0  0  0  0  0  0  0  0  0  0  0  0
   15.8964  -15.5566   21.7450 C   0  0  0  0  0  0  0  0  0  0  0  0
   14.5863  -16.2072   21.3599 C   0  0  0  0  0  0  0  0  0  0  0  0
   14.3721  -17.5763   21.5928 C   0  0  0  0  0  0  0  0  0  0  0  0
   13.1907  -18.1908   21.1691 C   0  0  0  0  0  0  0  0  0  0  0  0
   12.2316  -17.4402   20.5006 C   0  0  0  0  0  0  0  0  0  0  0  0
   11.1208  -18.0334   20.0434 F   0  0  0  0  0  0  0  0  0  0  0  0
   12.4355  -16.0873   20.2648 C   0  0  0  0  0  0  0  0  0  0  0  0
   11.5323  -15.3858   19.5607 F   0  0  0  0  0  0  0  0  0  0  0  0
   13.6008  -15.4636   20.6918 C   0  0  0  0  0  0  0  0  0  0  0  0
 20 21  1  0
 21 22  2  0
 21 14  1  0
 14 15  2  0
 15 16  1  0
 16 17  2  0
  1 17  1  0
  1  2  1  0
  2  3  1  0
  3  4  2  0
  3  5  1  0
  5 27  1  0
 27 28  1  0
 28 29  2  0
 29 30  1  0
 30 31  2  0
 31 32  1  0
 31 33  1  0
 33 34  1  0
 33 35  2  0
  5  6  1  0
  6  7  2  0
  8  6  1  0
  8  9  1  0
  9 10  1  0
 10 11  1  0
 11 12  1  0
 12 13  1  0
 17 18  1  0
 18 19  2  0
 19 14  1  0
 13  1  1  0
  8  2  1  0
 13  9  1  0
 35 28  1  0
 20 23  1  0
 20 24  1  0
 22 25  1  0
 22 26  1  0
M  CHG 1  22   1
M  END
> <minimizedAffinity>
-8.91100

> <CNNscore>
0.6173738241

> <CNNaffinity>
7.0805182457

> <CNN_VS>
4.3713264465

> <CNNaffinity_variance>
0.0666081533

$$$$



 35 39  0  0  0  0  0  0  0  0999 V2000
   13.3333  -13.1947   19.9242 C   0  0  0  0  0  0  0  0  0  0  0  0
   14.3401  -12.8427   18.8154 C   0  0  0  0  0  0  0  0  0  0  0  0
   15.3084  -11.7320   19.1166 C   0  0  0  0  0  0  0  0  0  0  0  0
   15.0279  -10.5407   19.0947 O   0  0  0  0  0  0  0  0  0  0  0  0
   16.5279  -12.2679   19.4038 N   0  0  0  0  0  0  0  0  0  0  0  0
   16.5679  -13.6172   19.2130 C   0  0  0  0  0  0  0  0  0  0  0  0
   17.5267  -14.3488   19.4099 O   0  0  0  0  0  0  0  0  0  0  0  0
   15.2391  -14.0672   18.6639 C   0  0  0  0  0  0  0  0  0  0  0  0
   14.6263  -15.1558   19.5134 C   0  0  0  0  0  0  0  0  0  0  0  0
   13.6267  -16.0394   18.7832 C   0  0  0  0  0  0  0  0  0  0  0  0
   12.7253  -16.5142   19.9064 C   0  0  0  0  0  0  0  0  0  0  0  0
   12.7297  -15.3713   20.9170 C   0  0  0  0  0  0  0  0  0  0  0  0
   13.8182  -14.4570   20.5273 N   0  0  0  0  0  0  0  0  0  0  0  0
   12.5141  -10.0905   22.8676 C   0  0  0  0  0  0  0  0  0  0  0  0
   13.6094   -9.9724   22.0043 C   0  0  0  0  0  0  0  0  0  0  0  0
   13.8794  -10.9648   21.0585 C   0  0  0  0  0  0  0  0  0  0  0  0
   13.0761  -12.1120   20.9621 C   0  0  0  0  0  0  0  0  0  0  0  0
   11.9891  -12.2344   21.8405 C   0  0  0  0  0  0  0  0  0  0  0  0
   11.7086  -11.2348   22.7787 C   0  0  0  0  0  0  0  0  0  0  0  0
   11.0178   -8.9700   24.3804 N   0  0  0  0  0  0  0  0  0  0  0  0
   12.2145   -9.0329   23.8402 C   0  0  0  0  0  0  0  0  0  0  0  0
   13.1514   -8.1622   24.1495 N   0  0  0  0  0  0  0  0  0  0  0  0
   10.8091   -8.2636   25.0336 H   0  0  0  0  0  0  0  0  0  0  0  0
   10.3303   -9.6293   24.1318 H   0  0  0  0  0  0  0  0  0  0  0  0
   12.9639   -7.4477   24.8004 H   0  0  0  0  0  0  0  0  0  0  0  0
   14.0398   -8.2252   23.7300 H   0  0  0  0  0  0  0  0  0  0  0  0
   17.6615  -11.4877   19.8525 C   0  0  0  0  0  0  0  0  0  0  0  0
   18.4669  -12.2535   20.8785 C   0  0  0  0  0  0  0  0  0  0  0  0
   19.8045  -12.6004   20.6237 C   0  0  0  0  0  0  0  0  0  0  0  0
   20.5236  -13.3716   21.5409 C   0  0  0  0  0  0  0  0  0  0  0  0
   19.9011  -13.8071   22.7041 C   0  0  0  0  0  0  0  0  0  0  0  0
   20.5663  -14.5919   23.5622 F   0  0  0  0  0  0  0  0  0  0  0  0
   18.5793  -13.4704   22.9632 C   0  0  0  0  0  0  0  0  0  0  0  0
   17.9673  -13.9507   24.0579 F   0  0  0  0  0  0  0  0  0  0  0  0
   17.8588  -12.6946   22.0642 C   0  0  0  0  0  0  0  0  0  0  0  0
 20 21  1  0
 21 22  2  0
 21 14  1  0
 14 15  2  0
 15 16  1  0
 16 17  2  0
  1 17  1  0
  1  2  1  0
  2  3  1  0
  3  4  2  0
  3  5  1  0
  5 27  1  0
 27 28  1  0
 28 29  2  0
 29 30  1  0
 30 31  2  0
 31 32  1  0
 31 33  1  0
 33 34  1  0
 33 35  2  0
  5  6  1  0
  6  7  2  0
  8  6  1  0
  8  9  1  0
  9 10  1  0
 10 11  1  0
 11 12  1  0
 12 13  1  0
 17 18  1  0
 18 19  2  0
 19 14  1  0
 13  1  1  0
  8  2  1  0
 13  9  1  0
 35 28  1  0
 20 23  1  0
 20 24  1  0
 22 25  1  0
 22 26  1  0
M  CHG 1  22   1
M  END
> <minimizedAffinity>
-9.61149

> <CNNscore>
0.6134428978

> <CNNaffinity>
7.1279044151

> <CNN_VS>
4.3725624084

> <CNNaffinity_variance>
0.0722485557

$$$$



 35 39  0  0  0  0  0  0  0  0999 V2000
   16.8675  -14.2765   19.8746 C   0  0  0  0  0  0  0  0  0  0  0  0
   16.6675  -13.1072   18.8948 C   0  0  0  0  0  0  0  0  0  0  0  0
   15.2461  -12.7083   18.6077 C   0  0  0  0  0  0  0  0  0  0  0  0
   14.4888  -13.3211   17.8665 O   0  0  0  0  0  0  0  0  0  0  0  0
   14.9549  -11.5673   19.2933 N   0  0  0  0  0  0  0  0  0  0  0  0
   16.0420  -11.0418   19.9263 C   0  0  0  0  0  0  0  0  0  0  0  0
   16.0602  -10.0373   20.6218 O   0  0  0  0  0  0  0  0  0  0  0  0
   17.2490  -11.8776   19.5881 C   0  0  0  0  0  0  0  0  0  0  0  0
   17.9457  -12.3772   20.8320 C   0  0  0  0  0  0  0  0  0  0  0  0
   19.4139  -12.7229   20.6379 C   0  0  0  0  0  0  0  0  0  0  0  0
   19.6513  -13.7660   21.7128 C   0  0  0  0  0  0  0  0  0  0  0  0
   18.3105  -14.4776   21.8657 C   0  0  0  0  0  0  0  0  0  0  0  0
   17.3093  -13.6669   21.1495 N   0  0  0  0  0  0  0  0  0  0  0  0
   13.4405  -16.9301   20.3047 C   0  0  0  0  0  0  0  0  0  0  0  0
   13.6801  -15.9283   21.2523 C   0  0  0  0  0  0  0  0  0  0  0  0
   14.7782  -15.0741   21.1218 C   0  0  0  0  0  0  0  0  0  0  0  0
   15.6788  -15.2095   20.0536 C   0  0  0  0  0  0  0  0  0  0  0  0
   15.4445  -16.2256   19.1151 C   0  0  0  0  0  0  0  0  0  0  0  0
   14.3373  -17.0727   19.2362 C   0  0  0  0  0  0  0  0  0  0  0  0
   11.1765  -17.5251   19.7543 N   0  0  0  0  0  0  0  0  0  0  0  0
   12.2700  -17.8070   20.4270 C   0  0  0  0  0  0  0  0  0  0  0  0
   12.3366  -18.8590   21.2147 N   0  0  0  0  0  0  0  0  0  0  0  0
   10.3872  -18.1084   19.8311 H   0  0  0  0  0  0  0  0  0  0  0  0
   11.1468  -16.7306   19.1736 H   0  0  0  0  0  0  0  0  0  0  0  0
   11.5587  -19.4555   21.3060 H   0  0  0  0  0  0  0  0  0  0  0  0
   13.1642  -19.0494   21.7127 H   0  0  0  0  0  0  0  0  0  0  0  0
   13.6365  -10.9714   19.3361 C   0  0  0  0  0  0  0  0  0  0  0  0
   13.0432  -11.0817   20.7231 C   0  0  0  0  0  0  0  0  0  0  0  0
   12.6489  -12.3295   21.2349 C   0  0  0  0  0  0  0  0  0  0  0  0
   12.0331  -12.4197   22.4861 C   0  0  0  0  0  0  0  0  0  0  0  0
   11.7990  -11.2619   23.2176 C   0  0  0  0  0  0  0  0  0  0  0  0
   11.1606  -11.3341   24.3931 F   0  0  0  0  0  0  0  0  0  0  0  0
   12.1838  -10.0247   22.7190 C   0  0  0  0  0  0  0  0  0  0  0  0
   11.8943   -8.9063   23.4037 F   0  0  0  0  0  0  0  0  0  0  0  0
   12.8072   -9.9246   21.4818 C   0  0  0  0  0  0  0  0  0  0  0  0
 20 21  1  0
 21 22  2  0
 21 14  1  0
 14 15  2  0
 15 16  1  0
 16 17  2  0
  1 17  1  0
  1  2  1  0
  2  3  1  0
  3  4  2  0
  3  5  1  0
  5 27  1  0
 27 28  1  0
 28 29  2  0
 29 30  1  0
 30 31  2  0
 31 32  1  0
 31 33  1  0
 33 34  1  0
 33 35  2  0
  5  6  1  0
  6  7  2  0
  8  6  1  0
  8  9  1  0
  9 10  1  0
 10 11  1  0
 11 12  1  0
 12 13  1  0
 17 18  1  0
 18 19  2  0
 19 14  1  0
 13  1  1  0
  8  2  1  0
 13  9  1  0
 35 28  1  0
 20 23  1  0
 20 24  1  0
 22 25  1  0
 22 26  1  0
M  CHG 1  22   1
M  END
> <minimizedAffinity>
-8.60925

> <CNNscore>
0.6045115590

> <CNNaffinity>
7.0461039543

> <CNN_VS>
4.2594513893

> <CNNaffinity_variance>
0.2614579797

$$$$



 35 39  0  0  0  0  0  0  0  0999 V2000
   14.7895  -13.2956   19.7430 C   0  0  0  0  0  0  0  0  0  0  0  0
   16.3146  -13.3712   19.9315 C   0  0  0  0  0  0  0  0  0  0  0  0
   16.8395  -13.0268   21.2982 C   0  0  0  0  0  0  0  0  0  0  0  0
   16.9477  -11.8882   21.7343 O   0  0  0  0  0  0  0  0  0  0  0  0
   17.1744  -14.1752   21.9508 N   0  0  0  0  0  0  0  0  0  0  0  0
   17.0712  -15.2799   21.1585 C   0  0  0  0  0  0  0  0  0  0  0  0
   17.2936  -16.4342   21.4920 O   0  0  0  0  0  0  0  0  0  0  0  0
   16.6826  -14.8439   19.7697 C   0  0  0  0  0  0  0  0  0  0  0  0
   15.4328  -15.5477   19.2953 C   0  0  0  0  0  0  0  0  0  0  0  0
   15.2832  -15.6186   17.7834 C   0  0  0  0  0  0  0  0  0  0  0  0
   13.7796  -15.7036   17.6052 C   0  0  0  0  0  0  0  0  0  0  0  0
   13.2044  -14.9254   18.7846 C   0  0  0  0  0  0  0  0  0  0  0  0
   14.3119  -14.6969   19.7301 N   0  0  0  0  0  0  0  0  0  0  0  0
   12.7023  -10.7723   22.6149 C   0  0  0  0  0  0  0  0  0  0  0  0
   12.6304  -12.1663   22.7178 C   0  0  0  0  0  0  0  0  0  0  0  0
   13.2961  -12.9823   21.7995 C   0  0  0  0  0  0  0  0  0  0  0  0
   14.0346  -12.4298   20.7412 C   0  0  0  0  0  0  0  0  0  0  0  0
   14.0904  -11.0323   20.6317 C   0  0  0  0  0  0  0  0  0  0  0  0
   13.4363  -10.2134   21.5589 C   0  0  0  0  0  0  0  0  0  0  0  0
   10.9284  -10.3422   24.1805 N   0  0  0  0  0  0  0  0  0  0  0  0
   12.0272   -9.9167   23.5979 C   0  0  0  0  0  0  0  0  0  0  0  0
   12.5339   -8.7341   23.8738 N   0  0  0  0  0  0  0  0  0  0  0  0
   10.4697   -9.7742   24.8409 H   0  0  0  0  0  0  0  0  0  0  0  0
   10.5641  -11.2290   23.9564 H   0  0  0  0  0  0  0  0  0  0  0  0
   12.0912   -8.1501   24.5312 H   0  0  0  0  0  0  0  0  0  0  0  0
   13.3557   -8.4333   23.4228 H   0  0  0  0  0  0  0  0  0  0  0  0
   17.6038  -14.2169   23.3324 C   0  0  0  0  0  0  0  0  0  0  0  0
   19.0853  -13.9319   23.4421 C   0  0  0  0  0  0  0  0  0  0  0  0
   19.8841  -13.8455   22.2893 C   0  0  0  0  0  0  0  0  0  0  0  0
   21.2645  -13.6561   22.3963 C   0  0  0  0  0  0  0  0  0  0  0  0
   21.8467  -13.5677   23.6547 C   0  0  0  0  0  0  0  0  0  0  0  0
   23.1756  -13.4406   23.7667 F   0  0  0  0  0  0  0  0  0  0  0  0
   21.0653  -13.6535   24.7991 C   0  0  0  0  0  0  0  0  0  0  0  0
   21.6453  -13.6327   26.0101 F   0  0  0  0  0  0  0  0  0  0  0  0
   19.6908  -13.8300   24.7043 C   0  0  0  0  0  0  0  0  0  0  0  0
 20 21  1  0
 21 22  2  0
 21 14  1  0
 14 15  2  0
 15 16  1  0
 16 17  2  0
  1 17  1  0
  1  2  1  0
  2  3  1  0
  3  4  2  0
  3  5  1  0
  5 27  1  0
 27 28  1  0
 28 29  2  0
 29 30  1  0
 30 31  2  0
 31 32  1  0
 31 33  1  0
 33 34  1  0
 33 35  2  0
  5  6  1  0
  6  7  2  0
  8  6  1  0
  8  9  1  0
  9 10  1  0
 10 11  1  0
 11 12  1  0
 12 13  1  0
 17 18  1  0
 18 19  2  0
 19 14  1  0
 13  1  1  0
  8  2  1  0
 13  9  1  0
 35 28  1  0
 20 23  1  0
 20 24  1  0
 22 25  1  0
 22 26  1  0
M  CHG 1  22   1
M  END
> <minimizedAffinity>
-9.59291

> <CNNscore>
0.5709096193

> <CNNaffinity>
7.2031307220

> <CNN_VS>
4.1123366356

> <CNNaffinity_variance>
0.3484371603

$$$$



 35 39  0  0  0  0  0  0  0  0999 V2000
   16.2847  -14.5127   18.9767 C   0  0  0  0  0  0  0  0  0  0  0  0
   16.4629  -13.0711   18.4697 C   0  0  0  0  0  0  0  0  0  0  0  0
   15.2037  -12.3015   18.1798 C   0  0  0  0  0  0  0  0  0  0  0  0
   14.5100  -12.4544   17.1830 O   0  0  0  0  0  0  0  0  0  0  0  0
   14.9770  -11.4177   19.1919 N   0  0  0  0  0  0  0  0  0  0  0  0
   15.9964  -11.3806   20.0963 C   0  0  0  0  0  0  0  0  0  0  0  0
   16.0456  -10.6925   21.1050 O   0  0  0  0  0  0  0  0  0  0  0  0
   17.0946  -12.2977   19.6245 C   0  0  0  0  0  0  0  0  0  0  0  0
   17.4561  -13.3196   20.6769 C   0  0  0  0  0  0  0  0  0  0  0  0
   18.8595  -13.8911   20.5465 C   0  0  0  0  0  0  0  0  0  0  0  0
   18.7199  -15.2565   21.1915 C   0  0  0  0  0  0  0  0  0  0  0  0
   17.2774  -15.6700   20.9164 C   0  0  0  0  0  0  0  0  0  0  0  0
   16.5721  -14.4712   20.4285 N   0  0  0  0  0  0  0  0  0  0  0  0
   12.4649  -16.3638   18.0000 C   0  0  0  0  0  0  0  0  0  0  0  0
   12.5957  -15.5834   19.1545 C   0  0  0  0  0  0  0  0  0  0  0  0
   13.8182  -14.9876   19.4752 C   0  0  0  0  0  0  0  0  0  0  0  0
   14.9489  -15.1711   18.6637 C   0  0  0  0  0  0  0  0  0  0  0  0
   14.8179  -15.9678   17.5164 C   0  0  0  0  0  0  0  0  0  0  0  0
   13.5907  -16.5534   17.1859 C   0  0  0  0  0  0  0  0  0  0  0  0
   10.9560  -17.3591   16.4140 N   0  0  0  0  0  0  0  0  0  0  0  0
   11.1725  -16.9642   17.6489 C   0  0  0  0  0  0  0  0  0  0  0  0
   10.2507  -17.0911   18.5793 N   0  0  0  0  0  0  0  0  0  0  0  0
   10.0917  -17.7628   16.1707 H   0  0  0  0  0  0  0  0  0  0  0  0
   11.6582  -17.2512   15.7325 H   0  0  0  0  0  0  0  0  0  0  0  0
    9.3793  -17.4921   18.3575 H   0  0  0  0  0  0  0  0  0  0  0  0
   10.4323  -16.7850   19.4972 H   0  0  0  0  0  0  0  0  0  0  0  0
   13.7875  -10.5989   19.2906 C   0  0  0  0  0  0  0  0  0  0  0  0
   13.1061  -10.8021   20.6256 C   0  0  0  0  0  0  0  0  0  0  0  0
   12.5447  -12.0461   20.9598 C   0  0  0  0  0  0  0  0  0  0  0  0
   11.8511  -12.2106   22.1618 C   0  0  0  0  0  0  0  0  0  0  0  0
   11.7068  -11.1285   23.0212 C   0  0  0  0  0  0  0  0  0  0  0  0
   10.9972  -11.2636   24.1493 F   0  0  0  0  0  0  0  0  0  0  0  0
   12.2568   -9.8953   22.6983 C   0  0  0  0  0  0  0  0  0  0  0  0
   12.0559   -8.8399   23.5039 F   0  0  0  0  0  0  0  0  0  0  0  0
   12.9582   -9.7236   21.5118 C   0  0  0  0  0  0  0  0  0  0  0  0
 20 21  1  0
 21 22  2  0
 21 14  1  0
 14 15  2  0
 15 16  1  0
 16 17  2  0
  1 17  1  0
  1  2  1  0
  2  3  1  0
  3  4  2  0
  3  5  1  0
  5 27  1  0
 27 28  1  0
 28 29  2  0
 29 30  1  0
 30 31  2  0
 31 32  1  0
 31 33  1  0
 33 34  1  0
 33 35  2  0
  5  6  1  0
  6  7  2  0
  8  6  1  0
  8  9  1  0
  9 10  1  0
 10 11  1  0
 11 12  1  0
 12 13  1  0
 17 18  1  0
 18 19  2  0
 19 14  1  0
 13  1  1  0
  8  2  1  0
 13  9  1  0
 35 28  1  0
 20 23  1  0
 20 24  1  0
 22 25  1  0
 22 26  1  0
M  CHG 1  22   1
M  END
> <minimizedAffinity>
-9.20464

> <CNNscore>
0.5411767960

> <CNNaffinity>
6.7191944122

> <CNN_VS>
3.6362721920

> <CNNaffinity_variance>
0.5374107957

$$$$



 35 39  0  0  0  0  0  0  0  0999 V2000
   16.1918  -15.5329   19.2559 C   0  0  0  0  0  0  0  0  0  0  0  0
   16.0095  -14.0058   19.2999 C   0  0  0  0  0  0  0  0  0  0  0  0
   14.6106  -13.4913   19.0993 C   0  0  0  0  0  0  0  0  0  0  0  0
   14.0445  -13.4220   18.0162 O   0  0  0  0  0  0  0  0  0  0  0  0
   14.0955  -13.1156   20.3036 N   0  0  0  0  0  0  0  0  0  0  0  0
   15.0114  -13.1815   21.3113 C   0  0  0  0  0  0  0  0  0  0  0  0
   14.8142  -12.9185   22.4882 O   0  0  0  0  0  0  0  0  0  0  0  0
   16.3409  -13.5870   20.7301 C   0  0  0  0  0  0  0  0  0  0  0  0
   16.8974  -14.8122   21.4167 C   0  0  0  0  0  0  0  0  0  0  0  0
   18.4076  -14.9615   21.3160 C   0  0  0  0  0  0  0  0  0  0  0  0
   18.5984  -16.4614   21.4319 C   0  0  0  0  0  0  0  0  0  0  0  0
   17.3378  -17.0616   20.8170 C   0  0  0  0  0  0  0  0  0  0  0  0
   16.3693  -15.9614   20.6620 N   0  0  0  0  0  0  0  0  0  0  0  0
   13.0680  -17.7120   17.1430 C   0  0  0  0  0  0  0  0  0  0  0  0
   12.9390  -17.4433   18.5106 C   0  0  0  0  0  0  0  0  0  0  0  0
   13.9375  -16.7461   19.1955 C   0  0  0  0  0  0  0  0  0  0  0  0
   15.1015  -16.3160   18.5391 C   0  0  0  0  0  0  0  0  0  0  0  0
   15.2346  -16.6019   17.1722 C   0  0  0  0  0  0  0  0  0  0  0  0
   14.2291  -17.2874   16.4814 C   0  0  0  0  0  0  0  0  0  0  0  0
   12.1386  -18.6452   15.1311 N   0  0  0  0  0  0  0  0  0  0  0  0
   12.0046  -18.4181   16.4188 C   0  0  0  0  0  0  0  0  0  0  0  0
   10.9317  -18.8068   17.0740 N   0  0  0  0  0  0  0  0  0  0  0  0
   11.4297  -19.1183   14.6382 H   0  0  0  0  0  0  0  0  0  0  0  0
   12.9479  -18.3423   14.6594 H   0  0  0  0  0  0  0  0  0  0  0  0
   10.2108  -19.2815   16.6005 H   0  0  0  0  0  0  0  0  0  0  0  0
   10.8498  -18.6230   18.0377 H   0  0  0  0  0  0  0  0  0  0  0  0
   12.7271  -12.6829   20.4911 C   0  0  0  0  0  0  0  0  0  0  0  0
   12.6649  -11.4863   21.4142 C   0  0  0  0  0  0  0  0  0  0  0  0
   13.4255  -10.3358   21.1455 C   0  0  0  0  0  0  0  0  0  0  0  0
   13.4237   -9.2607   22.0384 C   0  0  0  0  0  0  0  0  0  0  0  0
   12.6737   -9.3425   23.2050 C   0  0  0  0  0  0  0  0  0  0  0  0
   12.7094   -8.3390   24.0918 F   0  0  0  0  0  0  0  0  0  0  0  0
   11.9205  -10.4760   23.4793 C   0  0  0  0  0  0  0  0  0  0  0  0
   11.2515  -10.5719   24.6398 F   0  0  0  0  0  0  0  0  0  0  0  0
   11.9056  -11.5456   22.5933 C   0  0  0  0  0  0  0  0  0  0  0  0
 20 21  1  0
 21 22  2  0
 21 14  1  0
 14 15  2  0
 15 16  1  0
 16 17  2  0
  1 17  1  0
  1  2  1  0
  2  3  1  0
  3  4  2  0
  3  5  1  0
  5 27  1  0
 27 28  1  0
 28 29  2  0
 29 30  1  0
 30 31  2  0
 31 32  1  0
 31 33  1  0
 33 34  1  0
 33 35  2  0
  5  6  1  0
  6  7  2  0
  8  6  1  0
  8  9  1  0
  9 10  1  0
 10 11  1  0
 11 12  1  0
 12 13  1  0
 17 18  1  0
 18 19  2  0
 19 14  1  0
 13  1  1  0
  8  2  1  0
 13  9  1  0
 35 28  1  0
 20 23  1  0
 20 24  1  0
 22 25  1  0
 22 26  1  0
M  CHG 1  22   1
M  END
> <minimizedAffinity>
-8.10175

> <CNNscore>
0.3425338268

> <CNNaffinity>
6.4953951836

> <CNN_VS>
2.2248926163

> <CNNaffinity_variance>
0.1504023373

$$$$



 35 39  0  0  0  0  0  0  0  0999 V2000
   18.3790  -12.4757   20.7727 C   0  0  0  0  0  0  0  0  0  0  0  0
   19.3669  -12.8852   21.8787 C   0  0  0  0  0  0  0  0  0  0  0  0
   18.8899  -13.9283   22.8516 C   0  0  0  0  0  0  0  0  0  0  0  0
   18.1111  -13.7158   23.7717 O   0  0  0  0  0  0  0  0  0  0  0  0
   19.4677  -15.1235   22.5444 N   0  0  0  0  0  0  0  0  0  0  0  0
   20.3964  -15.0193   21.5517 C   0  0  0  0  0  0  0  0  0  0  0  0
   21.0499  -15.9336   21.0719 O   0  0  0  0  0  0  0  0  0  0  0  0
   20.5310  -13.5691   21.1662 C   0  0  0  0  0  0  0  0  0  0  0  0
   20.3069  -13.3641   19.6863 C   0  0  0  0  0  0  0  0  0  0  0  0
   20.9497  -12.1081   19.1184 C   0  0  0  0  0  0  0  0  0  0  0  0
   20.0631  -11.7941   17.9288 C   0  0  0  0  0  0  0  0  0  0  0  0
   18.6812  -12.3004   18.3303 C   0  0  0  0  0  0  0  0  0  0  0  0
   18.8607  -13.1303   19.5351 N   0  0  0  0  0  0  0  0  0  0  0  0
   14.1668  -13.3226   21.4874 C   0  0  0  0  0  0  0  0  0  0  0  0
   14.6715  -12.0333   21.6919 C   0  0  0  0  0  0  0  0  0  0  0  0
   16.0218  -11.7542   21.4660 C   0  0  0  0  0  0  0  0  0  0  0  0
   16.9098  -12.7588   21.0501 C   0  0  0  0  0  0  0  0  0  0  0  0
   16.4034  -14.0536   20.8625 C   0  0  0  0  0  0  0  0  0  0  0  0
   15.0484  -14.3317   21.0742 C   0  0  0  0  0  0  0  0  0  0  0  0
   12.2119  -14.6848   21.1625 N   0  0  0  0  0  0  0  0  0  0  0  0
   12.7421  -13.6070   21.6962 C   0  0  0  0  0  0  0  0  0  0  0  0
   12.0198  -12.7717   22.4118 N   0  0  0  0  0  0  0  0  0  0  0  0
   11.2570  -14.8825   21.2980 H   0  0  0  0  0  0  0  0  0  0  0  0
   12.7696  -15.2944   20.6272 H   0  0  0  0  0  0  0  0  0  0  0  0
   11.0630  -12.9503   22.5597 H   0  0  0  0  0  0  0  0  0  0  0  0
   12.4362  -11.9681   22.7992 H   0  0  0  0  0  0  0  0  0  0  0  0
   19.1392  -16.3675   23.2075 C   0  0  0  0  0  0  0  0  0  0  0  0
   20.2931  -16.8393   24.0641 C   0  0  0  0  0  0  0  0  0  0  0  0
   20.9445  -15.9522   24.9379 C   0  0  0  0  0  0  0  0  0  0  0  0
   22.0569  -16.3706   25.6730 C   0  0  0  0  0  0  0  0  0  0  0  0
   22.5257  -17.6699   25.5232 C   0  0  0  0  0  0  0  0  0  0  0  0
   23.6236  -18.0623   26.1829 F   0  0  0  0  0  0  0  0  0  0  0  0
   21.8893  -18.5525   24.6610 C   0  0  0  0  0  0  0  0  0  0  0  0
   22.3891  -19.7849   24.4741 F   0  0  0  0  0  0  0  0  0  0  0  0
   20.7758  -18.1510   23.9343 C   0  0  0  0  0  0  0  0  0  0  0  0
 20 21  1  0
 21 22  2  0
 21 14  1  0
 14 15  2  0
 15 16  1  0
 16 17  2  0
  1 17  1  0
  1  2  1  0
  2  3  1  0
  3  4  2  0
  3  5  1  0
  5 27  1  0
 27 28  1  0
 28 29  2  0
 29 30  1  0
 30 31  2  0
 31 32  1  0
 31 33  1  0
 33 34  1  0
 33 35  2  0
  5  6  1  0
  6  7  2  0
  8  6  1  0
  8  9  1  0
  9 10  1  0
 10 11  1  0
 11 12  1  0
 12 13  1  0
 17 18  1  0
 18 19  2  0
 19 14  1  0
 13  1  1  0
  8  2  1  0
 13  9  1  0
 35 28  1  0
 20 23  1  0
 20 24  1  0
 22 25  1  0
 22 26  1  0
M  CHG 1  22   1
M  END
> <minimizedAffinity>
-7.55162

> <CNNscore>
0.2791910470

> <CNNaffinity>
6.3348288536

> <CNN_VS>
1.7686275244

> <CNNaffinity_variance>
0.0042605144

$$$$
