


 29 31  0  0  0  0  0  0  0  0999 V2000
    2.7877  -10.2855   -5.5781 C   0  0  0  0  0  0  0  0  0  0  0  0
    1.7221  -10.2033   -6.4833 C   0  0  0  0  0  0  0  0  0  0  0  0
    1.9188  -10.5369   -7.8263 C   0  0  0  0  0  0  0  0  0  0  0  0
    0.5591  -10.3999   -8.8866 Cl  0  0  0  0  0  0  0  0  0  0  0  0
    3.1809  -10.9559   -8.2884 C   0  0  0  0  0  0  0  0  0  0  0  0
    4.2378  -11.0298   -7.3605 C   0  0  0  0  0  0  0  0  0  0  0  0
    4.0486  -10.6975   -6.0139 C   0  0  0  0  0  0  0  0  0  0  0  0
    5.3939  -10.8787   -4.9488 Cl  0  0  0  0  0  0  0  0  0  0  0  0
    3.4395  -11.3154   -9.6892 C   0  0  0  0  0  0  0  0  0  0  0  0
    4.7483  -11.5171  -10.1499 C   0  0  0  0  0  0  0  0  0  0  0  0
    4.9985  -11.8526  -11.4864 C   0  0  0  0  0  0  0  0  0  0  0  0
    3.9457  -11.9928  -12.3981 C   0  0  0  0  0  0  0  0  0  0  0  0
    4.1505  -12.3461  -13.8208 C   0  0  0  0  0  0  0  0  0  0  0  0
    5.5366  -12.5733  -14.3474 C   0  0  0  0  0  0  0  0  0  0  0  0
    3.0766  -12.4583  -14.6220 C   0  0  0  0  0  0  0  0  0  0  0  0
    1.6962  -12.2416  -14.1336 C   0  0  0  0  0  0  0  0  0  0  0  0
    0.7370  -12.3511  -14.8889 O   0  0  0  0  0  0  0  0  0  0  0  0
    1.5570  -11.9176  -12.8151 N   0  0  0  0  0  0  0  0  0  0  0  0
    2.6362  -11.7869  -11.9327 C   0  0  0  0  0  0  0  0  0  0  0  0
    2.3823  -11.4516  -10.5992 C   0  0  0  0  0  0  0  0  0  0  0  0
    0.6489  -11.7677  -12.4657 H   0  0  0  0  0  0  0  0  0  0  0  0
    2.8579   -8.5811   -3.8777 N   0  0  0  0  0  0  0  0  0  0  0  0
    2.5417   -9.8890   -4.1771 C   0  0  0  0  0  0  0  0  0  0  0  0
    2.1151  -10.7023   -3.3713 O   0  0  0  0  0  0  0  0  0  0  0  0
    3.2825   -8.0171   -4.5639 H   0  0  0  0  0  0  0  0  0  0  0  0
    2.5759   -8.0203   -2.5678 C   0  0  0  0  0  0  0  0  0  0  0  0
    3.3810   -6.7535   -2.2582 C   0  0  0  0  0  0  0  0  0  0  0  0
    1.6833   -6.5351   -0.6081 C   0  0  0  0  0  0  0  0  0  0  0  0
    2.6443   -5.8657   -1.4127 O   0  0  0  0  0  0  0  0  0  0  0  0
 28 29  1  0
 29 27  1  0
 27 26  1  0
 26 22  1  0
 22 23  1  0
 23 24  2  0
 23  1  1  0
  1  2  2  0
  2  3  1  0
  3  4  1  0
  3  5  2  0
  5  9  1  0
  9 10  2  0
 10 11  1  0
 11 12  2  0
 12 13  1  0
 13 14  1  0
 13 15  2  0
 15 16  1  0
 16 17  2  0
 16 18  1  0
 18 19  1  0
 19 20  2  0
  5  6  1  0
  6  7  2  0
  7  8  1  0
  7  1  1  0
 20  9  1  0
 19 12  1  0
 22 25  1  0
 18 21  1  0
M  END
> <minimizedAffinity>
-11.18897

> <CNNscore>
0.8843429685

> <CNNaffinity>
7.4936327934

> <CNN_VS>
6.6269416809

> <CNNaffinity_variance>
0.0044329432

$$$$



 29 31  0  0  0  0  0  0  0  0999 V2000
    2.7138  -11.3403   -5.5362 C   0  0  0  0  0  0  0  0  0  0  0  0
    1.7497  -11.9844   -6.3219 C   0  0  0  0  0  0  0  0  0  0  0  0
    1.9597  -12.1437   -7.6946 C   0  0  0  0  0  0  0  0  0  0  0  0
    0.7198  -12.9389   -8.6012 Cl  0  0  0  0  0  0  0  0  0  0  0  0
    3.1331  -11.6621   -8.3057 C   0  0  0  0  0  0  0  0  0  0  0  0
    4.0878  -11.0168   -7.4961 C   0  0  0  0  0  0  0  0  0  0  0  0
    3.8847  -10.8535   -6.1208 C   0  0  0  0  0  0  0  0  0  0  0  0
    5.1426  -10.1014   -5.2104 Cl  0  0  0  0  0  0  0  0  0  0  0  0
    3.4000  -11.8028   -9.7436 C   0  0  0  0  0  0  0  0  0  0  0  0
    4.7142  -11.8620  -10.2285 C   0  0  0  0  0  0  0  0  0  0  0  0
    4.9720  -11.9886  -11.5991 C   0  0  0  0  0  0  0  0  0  0  0  0
    3.9213  -12.0567  -12.5215 C   0  0  0  0  0  0  0  0  0  0  0  0
    4.1340  -12.1912  -13.9801 C   0  0  0  0  0  0  0  0  0  0  0  0
    5.5264  -12.2619  -14.5339 C   0  0  0  0  0  0  0  0  0  0  0  0
    3.0617  -12.2486  -14.7891 C   0  0  0  0  0  0  0  0  0  0  0  0
    1.6753  -12.1825  -14.2747 C   0  0  0  0  0  0  0  0  0  0  0  0
    0.7176  -12.2372  -15.0378 O   0  0  0  0  0  0  0  0  0  0  0  0
    1.5289  -12.0584  -12.9234 N   0  0  0  0  0  0  0  0  0  0  0  0
    2.6062  -11.9939  -12.0314 C   0  0  0  0  0  0  0  0  0  0  0  0
    2.3447  -11.8674  -10.6637 C   0  0  0  0  0  0  0  0  0  0  0  0
    0.6167  -12.0117  -12.5562 H   0  0  0  0  0  0  0  0  0  0  0  0
    2.5031  -12.3153   -3.3439 N   0  0  0  0  0  0  0  0  0  0  0  0
    2.4327  -11.1632   -4.0974 C   0  0  0  0  0  0  0  0  0  0  0  0
    2.1363  -10.0626   -3.6573 O   0  0  0  0  0  0  0  0  0  0  0  0
    2.6596  -13.1776   -3.7925 H   0  0  0  0  0  0  0  0  0  0  0  0
    2.3506  -12.2799   -1.8998 C   0  0  0  0  0  0  0  0  0  0  0  0
    1.1228  -13.0459   -1.3951 C   0  0  0  0  0  0  0  0  0  0  0  0
    0.4683  -14.6186   -3.0537 C   0  0  0  0  0  0  0  0  0  0  0  0
    1.1508  -14.4097   -1.8251 O   0  0  0  0  0  0  0  0  0  0  0  0
 28 29  1  0
 29 27  1  0
 27 26  1  0
 26 22  1  0
 22 23  1  0
 23 24  2  0
 23  1  1  0
  1  2  2  0
  2  3  1  0
  3  4  1  0
  3  5  2  0
  5  9  1  0
  9 10  2  0
 10 11  1  0
 11 12  2  0
 12 13  1  0
 13 14  1  0
 13 15  2  0
 15 16  1  0
 16 17  2  0
 16 18  1  0
 18 19  1  0
 19 20  2  0
  5  6  1  0
  6  7  2  0
  7  8  1  0
  7  1  1  0
 20  9  1  0
 19 12  1  0
 22 25  1  0
 18 21  1  0
M  END
> <minimizedAffinity>
-10.50617

> <CNNscore>
0.8411901593

> <CNNaffinity>
7.3834939003

> <CNN_VS>
6.2109222412

> <CNNaffinity_variance>
0.0275968146

$$$$



 29 31  0  0  0  0  0  0  0  0999 V2000
    2.6684  -11.4481  -11.1648 C   0  0  0  0  0  0  0  0  0  0  0  0
    1.5541  -11.0520  -10.4144 C   0  0  0  0  0  0  0  0  0  0  0  0
    1.6964  -10.7534   -9.0564 C   0  0  0  0  0  0  0  0  0  0  0  0
    0.2737  -10.2823   -8.1930 Cl  0  0  0  0  0  0  0  0  0  0  0  0
    2.9512  -10.8467   -8.4247 C   0  0  0  0  0  0  0  0  0  0  0  0
    4.0571  -11.2483   -9.1987 C   0  0  0  0  0  0  0  0  0  0  0  0
    3.9226  -11.5488  -10.5593 C   0  0  0  0  0  0  0  0  0  0  0  0
    5.3505  -11.9740  -11.4294 Cl  0  0  0  0  0  0  0  0  0  0  0  0
    3.1527  -10.5460   -7.0008 C   0  0  0  0  0  0  0  0  0  0  0  0
    2.1246   -9.9815   -6.2327 C   0  0  0  0  0  0  0  0  0  0  0  0
    2.3160   -9.6869   -4.8770 C   0  0  0  0  0  0  0  0  0  0  0  0
    3.5425   -9.9470   -4.2545 C   0  0  0  0  0  0  0  0  0  0  0  0
    3.8013   -9.6571   -2.8262 C   0  0  0  0  0  0  0  0  0  0  0  0
    2.7230   -9.0571   -1.9732 C   0  0  0  0  0  0  0  0  0  0  0  0
    5.0122   -9.9415   -2.3160 C   0  0  0  0  0  0  0  0  0  0  0  0
    6.0969  -10.5345   -3.1303 C   0  0  0  0  0  0  0  0  0  0  0  0
    7.1909  -10.7826   -2.6362 O   0  0  0  0  0  0  0  0  0  0  0  0
    5.8118  -10.7839   -4.4414 N   0  0  0  0  0  0  0  0  0  0  0  0
    4.5707  -10.5099   -5.0288 C   0  0  0  0  0  0  0  0  0  0  0  0
    4.3836  -10.8054   -6.3826 C   0  0  0  0  0  0  0  0  0  0  0  0
    6.5168  -11.1777   -5.0046 H   0  0  0  0  0  0  0  0  0  0  0  0
    3.5927  -12.2145  -13.2527 N   0  0  0  0  0  0  0  0  0  0  0  0
    2.4636  -11.7878  -12.5871 C   0  0  0  0  0  0  0  0  0  0  0  0
    1.3624  -11.6576  -13.1004 O   0  0  0  0  0  0  0  0  0  0  0  0
    4.4606  -12.2044  -12.7881 H   0  0  0  0  0  0  0  0  0  0  0  0
    3.5250  -12.6789  -14.6273 C   0  0  0  0  0  0  0  0  0  0  0  0
    4.8934  -12.7671  -15.3117 C   0  0  0  0  0  0  0  0  0  0  0  0
    6.9418  -12.7698  -14.1046 C   0  0  0  0  0  0  0  0  0  0  0  0
    5.8710  -11.9883  -14.6164 O   0  0  0  0  0  0  0  0  0  0  0  0
 28 29  1  0
 29 27  1  0
 27 26  1  0
 26 22  1  0
 22 23  1  0
 23 24  2  0
 23  1  1  0
  1  2  2  0
  2  3  1  0
  3  4  1  0
  3  5  2  0
  5  9  1  0
  9 10  2  0
 10 11  1  0
 11 12  2  0
 12 13  1  0
 13 14  1  0
 13 15  2  0
 15 16  1  0
 16 17  2  0
 16 18  1  0
 18 19  1  0
 19 20  2  0
  5  6  1  0
  6  7  2  0
  7  8  1  0
  7  1  1  0
 20  9  1  0
 19 12  1  0
 22 25  1  0
 18 21  1  0
M  END
> <minimizedAffinity>
-9.03594

> <CNNscore>
0.4434953928

> <CNNaffinity>
7.0976805687

> <CNN_VS>
3.1477885246

> <CNNaffinity_variance>
0.0436745174

$$$$



 29 31  0  0  0  0  0  0  0  0999 V2000
    3.1968  -10.4760   -2.8035 C   0  0  0  0  0  0  0  0  0  0  0  0
    2.9139  -11.1825   -3.9793 C   0  0  0  0  0  0  0  0  0  0  0  0
    2.3443  -12.4569   -3.9088 C   0  0  0  0  0  0  0  0  0  0  0  0
    2.0339  -13.2724   -5.4022 Cl  0  0  0  0  0  0  0  0  0  0  0  0
    2.0494  -13.0478   -2.6653 C   0  0  0  0  0  0  0  0  0  0  0  0
    2.3437  -12.3193   -1.4965 C   0  0  0  0  0  0  0  0  0  0  0  0
    2.9140  -11.0424   -1.5590 C   0  0  0  0  0  0  0  0  0  0  0  0
    3.1804  -10.2118   -0.0703 Cl  0  0  0  0  0  0  0  0  0  0  0  0
    1.4528  -14.3843   -2.5377 C   0  0  0  0  0  0  0  0  0  0  0  0
    0.0733  -14.5745   -2.7006 C   0  0  0  0  0  0  0  0  0  0  0  0
   -0.4993  -15.8460   -2.5722 C   0  0  0  0  0  0  0  0  0  0  0  0
    0.2931  -16.9609   -2.2748 C   0  0  0  0  0  0  0  0  0  0  0  0
   -0.2569  -18.3273   -2.1282 C   0  0  0  0  0  0  0  0  0  0  0  0
   -1.7274  -18.5685   -2.3000 C   0  0  0  0  0  0  0  0  0  0  0  0
    0.5832  -19.3370   -1.8412 C   0  0  0  0  0  0  0  0  0  0  0  0
    2.0388  -19.1327   -1.6665 C   0  0  0  0  0  0  0  0  0  0  0  0
    2.7794  -20.0738   -1.4049 O   0  0  0  0  0  0  0  0  0  0  0  0
    2.4996  -17.8562   -1.8109 N   0  0  0  0  0  0  0  0  0  0  0  0
    1.6744  -16.7651   -2.1095 C   0  0  0  0  0  0  0  0  0  0  0  0
    2.2500  -15.4972   -2.2367 C   0  0  0  0  0  0  0  0  0  0  0  0
    3.4642  -17.6937   -1.6990 H   0  0  0  0  0  0  0  0  0  0  0  0
    2.9629   -8.0795   -2.8616 N   0  0  0  0  0  0  0  0  0  0  0  0
    3.8312   -9.1482   -2.9260 C   0  0  0  0  0  0  0  0  0  0  0  0
    5.0371   -9.0538   -3.0988 O   0  0  0  0  0  0  0  0  0  0  0  0
    1.9939   -8.2462   -2.8119 H   0  0  0  0  0  0  0  0  0  0  0  0
    3.4521   -6.7118   -2.8660 C   0  0  0  0  0  0  0  0  0  0  0  0
    3.6684   -6.1347   -1.4627 C   0  0  0  0  0  0  0  0  0  0  0  0
    3.0404   -3.9062   -0.9224 C   0  0  0  0  0  0  0  0  0  0  0  0
    2.6070   -5.2479   -1.0985 O   0  0  0  0  0  0  0  0  0  0  0  0
 28 29  1  0
 29 27  1  0
 27 26  1  0
 26 22  1  0
 22 23  1  0
 23 24  2  0
 23  1  1  0
  1  2  2  0
  2  3  1  0
  3  4  1  0
  3  5  2  0
  5  9  1  0
  9 10  2  0
 10 11  1  0
 11 12  2  0
 12 13  1  0
 13 14  1  0
 13 15  2  0
 15 16  1  0
 16 17  2  0
 16 18  1  0
 18 19  1  0
 19 20  2  0
  5  6  1  0
  6  7  2  0
  7  8  1  0
  7  1  1  0
 20  9  1  0
 19 12  1  0
 22 25  1  0
 18 21  1  0
M  END
> <minimizedAffinity>
-5.56154

> <CNNscore>
0.3924473226

> <CNNaffinity>
5.5780291557

> <CNN_VS>
2.1890826225

> <CNNaffinity_variance>
0.0045928773

$$$$



 29 31  0  0  0  0  0  0  0  0999 V2000
    2.7946  -11.6608  -10.2029 C   0  0  0  0  0  0  0  0  0  0  0  0
    2.2416  -12.6857   -9.4249 C   0  0  0  0  0  0  0  0  0  0  0  0
    2.1695  -12.5472   -8.0359 C   0  0  0  0  0  0  0  0  0  0  0  0
    1.4841  -13.8592   -7.1410 Cl  0  0  0  0  0  0  0  0  0  0  0  0
    2.6490  -11.3859   -7.4006 C   0  0  0  0  0  0  0  0  0  0  0  0
    3.2021  -10.3692   -8.2031 C   0  0  0  0  0  0  0  0  0  0  0  0
    3.2776  -10.5004   -9.5947 C   0  0  0  0  0  0  0  0  0  0  0  0
    3.9192   -9.1721  -10.4895 Cl  0  0  0  0  0  0  0  0  0  0  0  0
    2.5980  -11.1930   -5.9451 C   0  0  0  0  0  0  0  0  0  0  0  0
    2.4944  -12.2896   -5.0776 C   0  0  0  0  0  0  0  0  0  0  0  0
    2.4382  -12.1085   -3.6901 C   0  0  0  0  0  0  0  0  0  0  0  0
    2.4814  -10.8248   -3.1337 C   0  0  0  0  0  0  0  0  0  0  0  0
    2.4262  -10.5736   -1.6760 C   0  0  0  0  0  0  0  0  0  0  0  0
    2.3197  -11.7231   -0.7182 C   0  0  0  0  0  0  0  0  0  0  0  0
    2.4739   -9.3046   -1.2346 C   0  0  0  0  0  0  0  0  0  0  0  0
    2.5800   -8.1485   -2.1530 C   0  0  0  0  0  0  0  0  0  0  0  0
    2.6214   -7.0025   -1.7199 O   0  0  0  0  0  0  0  0  0  0  0  0
    2.6276   -8.4292   -3.4877 N   0  0  0  0  0  0  0  0  0  0  0  0
    2.5822   -9.7288   -4.0068 C   0  0  0  0  0  0  0  0  0  0  0  0
    2.6385   -9.9054   -5.3928 C   0  0  0  0  0  0  0  0  0  0  0  0
    2.6976   -7.6775   -4.1196 H   0  0  0  0  0  0  0  0  0  0  0  0
    1.6701  -11.9620  -12.3115 N   0  0  0  0  0  0  0  0  0  0  0  0
    2.8825  -11.8664  -11.6626 C   0  0  0  0  0  0  0  0  0  0  0  0
    3.9716  -11.9665  -12.2074 O   0  0  0  0  0  0  0  0  0  0  0  0
    0.8384  -11.9613  -11.7847 H   0  0  0  0  0  0  0  0  0  0  0  0
    1.5977  -12.0636  -13.7587 C   0  0  0  0  0  0  0  0  0  0  0  0
    2.9067  -12.5292  -14.4058 C   0  0  0  0  0  0  0  0  0  0  0  0
    4.5511  -11.8838  -15.9970 C   0  0  0  0  0  0  0  0  0  0  0  0
    3.1936  -11.7803  -15.5900 O   0  0  0  0  0  0  0  0  0  0  0  0
 28 29  1  0
 29 27  1  0
 27 26  1  0
 26 22  1  0
 22 23  1  0
 23 24  2  0
 23  1  1  0
  1  2  2  0
  2  3  1  0
  3  4  1  0
  3  5  2  0
  5  9  1  0
  9 10  2  0
 10 11  1  0
 11 12  2  0
 12 13  1  0
 13 14  1  0
 13 15  2  0
 15 16  1  0
 16 17  2  0
 16 18  1  0
 18 19  1  0
 19 20  2  0
  5  6  1  0
  6  7  2  0
  7  8  1  0
  7  1  1  0
 20  9  1  0
 19 12  1  0
 22 25  1  0
 18 21  1  0
M  END
> <minimizedAffinity>
-10.30872

> <CNNscore>
0.3710775971

> <CNNaffinity>
6.5631790161

> <CNN_VS>
2.4354486465

> <CNNaffinity_variance>
0.3022907376

$$$$



 29 31  0  0  0  0  0  0  0  0999 V2000
    3.7385  -11.9103   -2.8863 C   0  0  0  0  0  0  0  0  0  0  0  0
    3.0458  -12.3102   -4.0360 C   0  0  0  0  0  0  0  0  0  0  0  0
    2.0462  -13.2830   -3.9465 C   0  0  0  0  0  0  0  0  0  0  0  0
    1.2425  -13.7335   -5.4104 Cl  0  0  0  0  0  0  0  0  0  0  0  0
    1.7226  -13.8736   -2.7102 C   0  0  0  0  0  0  0  0  0  0  0  0
    2.4332  -13.4568   -1.5679 C   0  0  0  0  0  0  0  0  0  0  0  0
    3.4354  -12.4830   -1.6494 C   0  0  0  0  0  0  0  0  0  0  0  0
    4.2041  -12.0017   -0.1816 Cl  0  0  0  0  0  0  0  0  0  0  0  0
    0.6824  -14.9008   -2.5637 C   0  0  0  0  0  0  0  0  0  0  0  0
    0.9445  -16.2403   -2.8845 C   0  0  0  0  0  0  0  0  0  0  0  0
   -0.0471  -17.2205   -2.7531 C   0  0  0  0  0  0  0  0  0  0  0  0
   -1.3283  -16.8858   -2.2994 C   0  0  0  0  0  0  0  0  0  0  0  0
   -2.4143  -17.8789   -2.1405 C   0  0  0  0  0  0  0  0  0  0  0  0
   -2.1684  -19.3215   -2.4702 C   0  0  0  0  0  0  0  0  0  0  0  0
   -3.6137  -17.4629   -1.6978 C   0  0  0  0  0  0  0  0  0  0  0  0
   -3.8884  -16.0474   -1.3630 C   0  0  0  0  0  0  0  0  0  0  0  0
   -4.9929  -15.6987   -0.9616 O   0  0  0  0  0  0  0  0  0  0  0  0
   -2.8571  -15.1685   -1.5255 N   0  0  0  0  0  0  0  0  0  0  0  0
   -1.5872  -15.5420   -1.9820 C   0  0  0  0  0  0  0  0  0  0  0  0
   -0.6000  -14.5604   -2.1121 C   0  0  0  0  0  0  0  0  0  0  0  0
   -3.0145  -14.2208   -1.3102 H   0  0  0  0  0  0  0  0  0  0  0  0
    6.0809  -11.4243   -3.1660 N   0  0  0  0  0  0  0  0  0  0  0  0
    4.8105  -10.9057   -3.0348 C   0  0  0  0  0  0  0  0  0  0  0  0
    4.5465   -9.7129   -3.0091 O   0  0  0  0  0  0  0  0  0  0  0  0
    6.2171  -12.3960   -3.0854 H   0  0  0  0  0  0  0  0  0  0  0  0
    7.2222  -10.5628   -3.4210 C   0  0  0  0  0  0  0  0  0  0  0  0
    8.4386  -10.8831   -2.5454 C   0  0  0  0  0  0  0  0  0  0  0  0
   10.6539  -11.7268   -2.7280 C   0  0  0  0  0  0  0  0  0  0  0  0
    9.6379  -10.9313   -3.3232 O   0  0  0  0  0  0  0  0  0  0  0  0
 28 29  1  0
 29 27  1  0
 27 26  1  0
 26 22  1  0
 22 23  1  0
 23 24  2  0
 23  1  1  0
  1  2  2  0
  2  3  1  0
  3  4  1  0
  3  5  2  0
  5  9  1  0
  9 10  2  0
 10 11  1  0
 11 12  2  0
 12 13  1  0
 13 14  1  0
 13 15  2  0
 15 16  1  0
 16 17  2  0
 16 18  1  0
 18 19  1  0
 19 20  2  0
  5  6  1  0
  6  7  2  0
  7  8  1  0
  7  1  1  0
 20  9  1  0
 19 12  1  0
 22 25  1  0
 18 21  1  0
M  END
> <minimizedAffinity>
-5.35947

> <CNNscore>
0.3323410451

> <CNNaffinity>
5.5080580711

> <CNN_VS>
1.8305537701

> <CNNaffinity_variance>
0.2251440138

$$$$



 29 31  0  0  0  0  0  0  0  0999 V2000
    2.7663  -10.2534   -5.5761 C   0  0  0  0  0  0  0  0  0  0  0  0
    1.6428  -10.1512   -6.4061 C   0  0  0  0  0  0  0  0  0  0  0  0
    1.7436  -10.4763   -7.7617 C   0  0  0  0  0  0  0  0  0  0  0  0
    0.3168  -10.3146   -8.7260 Cl  0  0  0  0  0  0  0  0  0  0  0  0
    2.9661  -10.9066   -8.3116 C   0  0  0  0  0  0  0  0  0  0  0  0
    4.0826  -11.0005   -7.4583 C   0  0  0  0  0  0  0  0  0  0  0  0
    3.9895  -10.6769   -6.0996 C   0  0  0  0  0  0  0  0  0  0  0  0
    5.4017  -10.8826   -5.1299 Cl  0  0  0  0  0  0  0  0  0  0  0  0
    3.1244  -11.2578   -9.7294 C   0  0  0  0  0  0  0  0  0  0  0  0
    2.0068  -11.4013  -10.5637 C   0  0  0  0  0  0  0  0  0  0  0  0
    2.1541  -11.7432  -11.9137 C   0  0  0  0  0  0  0  0  0  0  0  0
    3.4238  -11.9533  -12.4643 C   0  0  0  0  0  0  0  0  0  0  0  0
    3.6395  -12.3157  -13.8831 C   0  0  0  0  0  0  0  0  0  0  0  0
    2.4672  -12.4734  -14.8057 C   0  0  0  0  0  0  0  0  0  0  0  0
    4.8972  -12.4977  -14.3218 C   0  0  0  0  0  0  0  0  0  0  0  0
    6.0752  -12.3487  -13.4378 C   0  0  0  0  0  0  0  0  0  0  0  0
    7.2102  -12.5214  -13.8674 O   0  0  0  0  0  0  0  0  0  0  0  0
    5.8270  -12.0141  -12.1382 N   0  0  0  0  0  0  0  0  0  0  0  0
    4.5406  -11.8115  -11.6238 C   0  0  0  0  0  0  0  0  0  0  0  0
    4.3977  -11.4703  -10.2754 C   0  0  0  0  0  0  0  0  0  0  0  0
    6.5937  -11.9096  -11.5295 H   0  0  0  0  0  0  0  0  0  0  0  0
    2.8826   -8.5392   -3.8881 N   0  0  0  0  0  0  0  0  0  0  0  0
    2.6211   -9.8652   -4.1588 C   0  0  0  0  0  0  0  0  0  0  0  0
    2.3170  -10.6987   -3.3186 O   0  0  0  0  0  0  0  0  0  0  0  0
    3.2102   -7.9541   -4.6089 H   0  0  0  0  0  0  0  0  0  0  0  0
    2.6835   -7.9897   -2.5583 C   0  0  0  0  0  0  0  0  0  0  0  0
    3.8214   -7.0716   -2.0988 C   0  0  0  0  0  0  0  0  0  0  0  0
    5.0930   -6.4158   -0.1999 C   0  0  0  0  0  0  0  0  0  0  0  0
    4.2575   -7.4086   -0.7790 O   0  0  0  0  0  0  0  0  0  0  0  0
 28 29  1  0
 29 27  1  0
 27 26  1  0
 26 22  1  0
 22 23  1  0
 23 24  2  0
 23  1  1  0
  1  2  2  0
  2  3  1  0
  3  4  1  0
  3  5  2  0
  5  9  1  0
  9 10  2  0
 10 11  1  0
 11 12  2  0
 12 13  1  0
 13 14  1  0
 13 15  2  0
 15 16  1  0
 16 17  2  0
 16 18  1  0
 18 19  1  0
 19 20  2  0
  5  6  1  0
  6  7  2  0
  7  8  1  0
  7  1  1  0
 20  9  1  0
 19 12  1  0
 22 25  1  0
 18 21  1  0
M  END
> <minimizedAffinity>
-10.47642

> <CNNscore>
0.3017235100

> <CNNaffinity>
6.0502133369

> <CNN_VS>
1.8254915476

> <CNNaffinity_variance>
1.0151249170

$$$$



 29 31  0  0  0  0  0  0  0  0999 V2000
    2.9958  -10.9099   -2.8333 C   0  0  0  0  0  0  0  0  0  0  0  0
    2.6703  -11.6096   -4.0021 C   0  0  0  0  0  0  0  0  0  0  0  0
    2.0708  -12.8694   -3.9182 C   0  0  0  0  0  0  0  0  0  0  0  0
    1.7084  -13.6776   -5.4039 Cl  0  0  0  0  0  0  0  0  0  0  0  0
    1.7879  -13.4521   -2.6682 C   0  0  0  0  0  0  0  0  0  0  0  0
    2.1251  -12.7307   -1.5066 C   0  0  0  0  0  0  0  0  0  0  0  0
    2.7255  -11.4685   -1.5825 C   0  0  0  0  0  0  0  0  0  0  0  0
    3.0442  -10.6441   -0.1007 Cl  0  0  0  0  0  0  0  0  0  0  0  0
    1.1610  -14.7733   -2.5266 C   0  0  0  0  0  0  0  0  0  0  0  0
    1.9356  -15.9419   -2.5412 C   0  0  0  0  0  0  0  0  0  0  0  0
    1.3403  -17.2031   -2.4138 C   0  0  0  0  0  0  0  0  0  0  0  0
   -0.0465  -17.3287   -2.2709 C   0  0  0  0  0  0  0  0  0  0  0  0
   -0.7296  -18.6344   -2.1319 C   0  0  0  0  0  0  0  0  0  0  0  0
    0.0678  -19.9049   -2.1390 C   0  0  0  0  0  0  0  0  0  0  0  0
   -2.0674  -18.6554   -1.9998 C   0  0  0  0  0  0  0  0  0  0  0  0
   -2.8829  -17.4201   -1.9879 C   0  0  0  0  0  0  0  0  0  0  0  0
   -4.1016  -17.4718   -1.8659 O   0  0  0  0  0  0  0  0  0  0  0  0
   -2.2094  -16.2404   -2.1193 N   0  0  0  0  0  0  0  0  0  0  0  0
   -0.8189  -16.1552   -2.2598 C   0  0  0  0  0  0  0  0  0  0  0  0
   -0.2283  -14.8942   -2.3869 C   0  0  0  0  0  0  0  0  0  0  0  0
   -2.7292  -15.4043   -2.1151 H   0  0  0  0  0  0  0  0  0  0  0  0
    2.8425   -8.5070   -2.7702 N   0  0  0  0  0  0  0  0  0  0  0  0
    3.6603   -9.5983   -2.9706 C   0  0  0  0  0  0  0  0  0  0  0  0
    4.8435   -9.5341   -3.2689 O   0  0  0  0  0  0  0  0  0  0  0  0
    1.8790   -8.6455   -2.6226 H   0  0  0  0  0  0  0  0  0  0  0  0
    3.3767   -7.1563   -2.7728 C   0  0  0  0  0  0  0  0  0  0  0  0
    3.4376   -6.5195   -1.3801 C   0  0  0  0  0  0  0  0  0  0  0  0
    3.0971   -4.3613   -0.4425 C   0  0  0  0  0  0  0  0  0  0  0  0
    2.5844   -5.3745   -1.2968 O   0  0  0  0  0  0  0  0  0  0  0  0
 28 29  1  0
 29 27  1  0
 27 26  1  0
 26 22  1  0
 22 23  1  0
 23 24  2  0
 23  1  1  0
  1  2  2  0
  2  3  1  0
  3  4  1  0
  3  5  2  0
  5  9  1  0
  9 10  2  0
 10 11  1  0
 11 12  2  0
 12 13  1  0
 13 14  1  0
 13 15  2  0
 15 16  1  0
 16 17  2  0
 16 18  1  0
 18 19  1  0
 19 20  2  0
  5  6  1  0
  6  7  2  0
  7  8  1  0
  7  1  1  0
 20  9  1  0
 19 12  1  0
 22 25  1  0
 18 21  1  0
M  END
> <minimizedAffinity>
-5.37736

> <CNNscore>
0.2931514084

> <CNNaffinity>
5.2985672951

> <CNN_VS>
1.5532824993

> <CNNaffinity_variance>
0.0607523024

$$$$



 29 31  0  0  0  0  0  0  0  0999 V2000
    2.9278  -11.6332   -9.9314 C   0  0  0  0  0  0  0  0  0  0  0  0
    2.3766  -12.6240   -9.1091 C   0  0  0  0  0  0  0  0  0  0  0  0
    2.2595  -12.4051   -7.7337 C   0  0  0  0  0  0  0  0  0  0  0  0
    1.5796  -13.6788   -6.7813 Cl  0  0  0  0  0  0  0  0  0  0  0  0
    2.6915  -11.1960   -7.1561 C   0  0  0  0  0  0  0  0  0  0  0  0
    3.2436  -10.2148   -8.0022 C   0  0  0  0  0  0  0  0  0  0  0  0
    3.3641  -10.4266   -9.3806 C   0  0  0  0  0  0  0  0  0  0  0  0
    3.9998   -9.1377  -10.3352 Cl  0  0  0  0  0  0  0  0  0  0  0  0
    2.5922  -10.9182   -5.7168 C   0  0  0  0  0  0  0  0  0  0  0  0
    2.2870   -9.6310   -5.2524 C   0  0  0  0  0  0  0  0  0  0  0  0
    2.1989   -9.3614   -3.8810 C   0  0  0  0  0  0  0  0  0  0  0  0
    2.4164  -10.3723   -2.9375 C   0  0  0  0  0  0  0  0  0  0  0  0
    2.3360  -10.1456   -1.4771 C   0  0  0  0  0  0  0  0  0  0  0  0
    2.0075   -8.7822   -0.9446 C   0  0  0  0  0  0  0  0  0  0  0  0
    2.5610  -11.1791   -0.6471 C   0  0  0  0  0  0  0  0  0  0  0  0
    2.8863  -12.5364   -1.1403 C   0  0  0  0  0  0  0  0  0  0  0  0
    3.0865  -13.4588   -0.3583 O   0  0  0  0  0  0  0  0  0  0  0  0
    2.9496  -12.6971   -2.4941 N   0  0  0  0  0  0  0  0  0  0  0  0
    2.7248  -11.6599   -3.4074 C   0  0  0  0  0  0  0  0  0  0  0  0
    2.8139  -11.9331   -4.7759 C   0  0  0  0  0  0  0  0  0  0  0  0
    3.1648  -13.5904   -2.8475 H   0  0  0  0  0  0  0  0  0  0  0  0
    1.8755  -12.0060  -12.0657 N   0  0  0  0  0  0  0  0  0  0  0  0
    3.0643  -11.9229  -11.3729 C   0  0  0  0  0  0  0  0  0  0  0  0
    4.1689  -12.0966  -11.8657 O   0  0  0  0  0  0  0  0  0  0  0  0
    1.0245  -11.9429  -11.5748 H   0  0  0  0  0  0  0  0  0  0  0  0
    1.8560  -12.1849  -13.5070 C   0  0  0  0  0  0  0  0  0  0  0  0
    3.2015  -11.8895  -14.1788 C   0  0  0  0  0  0  0  0  0  0  0  0
    4.4383  -12.0685  -16.2014 C   0  0  0  0  0  0  0  0  0  0  0  0
    3.2089  -12.3314  -15.5391 O   0  0  0  0  0  0  0  0  0  0  0  0
 28 29  1  0
 29 27  1  0
 27 26  1  0
 26 22  1  0
 22 23  1  0
 23 24  2  0
 23  1  1  0
  1  2  2  0
  2  3  1  0
  3  4  1  0
  3  5  2  0
  5  9  1  0
  9 10  2  0
 10 11  1  0
 11 12  2  0
 12 13  1  0
 13 14  1  0
 13 15  2  0
 15 16  1  0
 16 17  2  0
 16 18  1  0
 18 19  1  0
 19 20  2  0
  5  6  1  0
  6  7  2  0
  7  8  1  0
  7  1  1  0
 20  9  1  0
 19 12  1  0
 22 25  1  0
 18 21  1  0
M  END
> <minimizedAffinity>
-9.24865

> <CNNscore>
0.2784893513

> <CNNaffinity>
6.1928887367

> <CNN_VS>
1.7246536016

> <CNNaffinity_variance>
0.2813879251

$$$$
