


 16 17  0  0  0  0  0  0  0  0999 V2000
  -41.0514    8.5283   22.0245 C   0  0  0  0  0  0  0  0  0  0  0  0
  -41.5760    7.2875   21.9981 C   0  0  0  0  0  0  0  0  0  0  0  0
  -43.0172    6.9082   21.9404 C   0  0  0  0  0  0  0  0  0  0  0  0
  -40.6015    6.2990   22.0152 N   0  0  0  0  0  0  0  0  0  0  0  0
  -39.3831    6.9536   21.9335 N   0  0  0  0  0  0  0  0  0  0  0  0
  -39.5750    8.3238   21.9928 C   0  0  0  0  0  0  0  0  0  0  0  0
  -38.7314    9.2064   21.9883 O   0  0  0  0  0  0  0  0  0  0  0  0
  -40.7470    5.3270   22.0737 H   0  0  0  0  0  0  0  0  0  0  0  0
  -38.1664    6.3395   21.8477 C   0  0  0  0  0  0  0  0  0  0  0  0
  -37.6484    5.4195   22.6336 N   0  0  0  0  0  0  0  0  0  0  0  0
  -36.4124    5.1215   22.1051 N   0  0  0  0  0  0  0  0  0  0  0  0
  -36.1720    5.8392   21.0153 N   0  0  0  0  0  0  0  0  0  0  0  0
  -37.2627    6.6014   20.8555 N   0  0  0  0  0  0  0  0  0  0  0  0
  -37.3941    7.2540   20.1302 H   0  0  0  0  0  0  0  0  0  0  0  0
  -42.2061   10.2265   23.4379 C   0  0  0  0  0  0  0  0  0  0  0  0
  -41.6703    9.8773   22.0578 C   0  0  0  0  0  0  0  0  0  0  0  0
 15 16  1  0
 16  1  1  0
  1  2  2  0
  2  3  1  0
  2  4  1  0
  4  5  1  0
  5  9  1  0
  9 10  2  0
 10 11  1  0
 11 12  2  0
 12 13  1  0
  5  6  1  0
  6  7  2  0
  6  1  1  0
 13  9  1  0
  4  8  1  0
 13 14  1  0
M  END
> <minimizedAffinity>
-5.46900

> <CNNscore>
0.7509042621

> <CNNaffinity>
3.7638254166

> <CNN_VS>
2.8262724876

> <CNNaffinity_variance>
0.6988289952

$$$$



 16 17  0  0  0  0  0  0  0  0999 V2000
  -40.1004    7.4848   21.4546 C   0  0  0  0  0  0  0  0  0  0  0  0
  -39.7674    7.9571   20.2375 C   0  0  0  0  0  0  0  0  0  0  0  0
  -40.4779    8.9957   19.4369 C   0  0  0  0  0  0  0  0  0  0  0  0
  -38.6104    7.3730   19.7400 N   0  0  0  0  0  0  0  0  0  0  0  0
  -38.1183    6.5641   20.7514 N   0  0  0  0  0  0  0  0  0  0  0  0
  -39.0072    6.5365   21.8129 C   0  0  0  0  0  0  0  0  0  0  0  0
  -38.9236    5.9028   22.8531 O   0  0  0  0  0  0  0  0  0  0  0  0
  -38.2180    7.5069   18.8470 H   0  0  0  0  0  0  0  0  0  0  0  0
  -36.9476    5.8631   20.6963 C   0  0  0  0  0  0  0  0  0  0  0  0
  -36.5419    4.8716   21.4611 N   0  0  0  0  0  0  0  0  0  0  0  0
  -35.3050    4.5040   20.9808 N   0  0  0  0  0  0  0  0  0  0  0  0
  -34.9542    5.2495   19.9407 N   0  0  0  0  0  0  0  0  0  0  0  0
  -35.9753    6.0993   19.7643 N   0  0  0  0  0  0  0  0  0  0  0  0
  -36.0191    6.7921   19.0661 H   0  0  0  0  0  0  0  0  0  0  0  0
  -42.4888    6.9844   21.9645 C   0  0  0  0  0  0  0  0  0  0  0  0
  -41.2438    7.7641   22.3593 C   0  0  0  0  0  0  0  0  0  0  0  0
 15 16  1  0
 16  1  1  0
  1  2  2  0
  2  3  1  0
  2  4  1  0
  4  5  1  0
  5  9  1  0
  9 10  2  0
 10 11  1  0
 11 12  2  0
 12 13  1  0
  5  6  1  0
  6  7  2  0
  6  1  1  0
 13  9  1  0
  4  8  1  0
 13 14  1  0
M  END
> <minimizedAffinity>
-6.03887

> <CNNscore>
0.6890044808

> <CNNaffinity>
3.5383193493

> <CNN_VS>
2.4379179478

> <CNNaffinity_variance>
0.6568384767

$$$$



 16 17  0  0  0  0  0  0  0  0999 V2000
  -37.5307    5.2091    9.6870 C   0  0  0  0  0  0  0  0  0  0  0  0
  -37.6029    4.3661   10.7356 C   0  0  0  0  0  0  0  0  0  0  0  0
  -36.6140    4.1967   11.8390 C   0  0  0  0  0  0  0  0  0  0  0  0
  -38.7669    3.6094   10.7288 N   0  0  0  0  0  0  0  0  0  0  0  0
  -39.5307    4.0818    9.6739 N   0  0  0  0  0  0  0  0  0  0  0  0
  -38.8155    5.0239    8.9537 C   0  0  0  0  0  0  0  0  0  0  0  0
  -39.1538    5.6202    7.9435 O   0  0  0  0  0  0  0  0  0  0  0  0
  -39.0024    2.8825   11.3495 H   0  0  0  0  0  0  0  0  0  0  0  0
  -40.7897    3.6539    9.3630 C   0  0  0  0  0  0  0  0  0  0  0  0
  -41.6629    3.0323   10.1270 N   0  0  0  0  0  0  0  0  0  0  0  0
  -42.7813    2.8417    9.3469 N   0  0  0  0  0  0  0  0  0  0  0  0
  -42.6052    3.3363    8.1283 N   0  0  0  0  0  0  0  0  0  0  0  0
  -41.3632    3.8398    8.1357 N   0  0  0  0  0  0  0  0  0  0  0  0
  -40.9276    4.2790    7.3698 H   0  0  0  0  0  0  0  0  0  0  0  0
  -36.4499    7.4124   10.1254 C   0  0  0  0  0  0  0  0  0  0  0  0
  -36.4907    6.1722    9.2456 C   0  0  0  0  0  0  0  0  0  0  0  0
 15 16  1  0
 16  1  1  0
  1  2  2  0
  2  3  1  0
  2  4  1  0
  4  5  1  0
  5  9  1  0
  9 10  2  0
 10 11  1  0
 11 12  2  0
 12 13  1  0
  5  6  1  0
  6  7  2  0
  6  1  1  0
 13  9  1  0
  4  8  1  0
 13 14  1  0
M  END
> <minimizedAffinity>
-4.66002

> <CNNscore>
0.6863107681

> <CNNaffinity>
3.9995555878

> <CNN_VS>
2.7449381351

> <CNNaffinity_variance>
0.5640135407

$$$$



 16 17  0  0  0  0  0  0  0  0999 V2000
  -33.9705    7.4992   18.5282 C   0  0  0  0  0  0  0  0  0  0  0  0
  -34.7425    8.5514   18.8634 C   0  0  0  0  0  0  0  0  0  0  0  0
  -35.0475    9.0590   20.2321 C   0  0  0  0  0  0  0  0  0  0  0  0
  -35.2699    9.1973   17.7535 N   0  0  0  0  0  0  0  0  0  0  0  0
  -34.7072    8.5860   16.6448 N   0  0  0  0  0  0  0  0  0  0  0  0
  -33.9438    7.4994   17.0376 C   0  0  0  0  0  0  0  0  0  0  0  0
  -33.3364    6.7080   16.3338 O   0  0  0  0  0  0  0  0  0  0  0  0
  -35.9150    9.9411   17.7541 H   0  0  0  0  0  0  0  0  0  0  0  0
  -34.9066    8.9717   15.3501 C   0  0  0  0  0  0  0  0  0  0  0  0
  -34.1413    8.7645   14.2994 N   0  0  0  0  0  0  0  0  0  0  0  0
  -34.7987    9.3357   13.2330 N   0  0  0  0  0  0  0  0  0  0  0  0
  -35.9461    9.8819   13.6146 N   0  0  0  0  0  0  0  0  0  0  0  0
  -36.0132    9.6590   14.9344 N   0  0  0  0  0  0  0  0  0  0  0  0
  -36.7510    9.9476   15.5189 H   0  0  0  0  0  0  0  0  0  0  0  0
  -34.0369    5.2186   19.5328 C   0  0  0  0  0  0  0  0  0  0  0  0
  -33.2354    6.4970   19.3400 C   0  0  0  0  0  0  0  0  0  0  0  0
 15 16  1  0
 16  1  1  0
  1  2  2  0
  2  3  1  0
  2  4  1  0
  4  5  1  0
  5  9  1  0
  9 10  2  0
 10 11  1  0
 11 12  2  0
 12 13  1  0
  5  6  1  0
  6  7  2  0
  6  1  1  0
 13  9  1  0
  4  8  1  0
 13 14  1  0
M  END
> <minimizedAffinity>
-4.96837

> <CNNscore>
0.6842433214

> <CNNaffinity>
3.3342945576

> <CNN_VS>
2.2814688683

> <CNNaffinity_variance>
0.7956658006

$$$$



 16 17  0  0  0  0  0  0  0  0999 V2000
  -37.1086    5.8889   10.6329 C   0  0  0  0  0  0  0  0  0  0  0  0
  -37.1056    6.1584    9.3127 C   0  0  0  0  0  0  0  0  0  0  0  0
  -36.0894    6.9317    8.5423 C   0  0  0  0  0  0  0  0  0  0  0  0
  -38.1987    5.6088    8.6566 N   0  0  0  0  0  0  0  0  0  0  0  0
  -38.8754    4.8503    9.5981 N   0  0  0  0  0  0  0  0  0  0  0  0
  -38.2996    5.0180   10.8463 C   0  0  0  0  0  0  0  0  0  0  0  0
  -38.6522    4.5386   11.9124 O   0  0  0  0  0  0  0  0  0  0  0  0
  -38.4440    5.7332    7.7113 H   0  0  0  0  0  0  0  0  0  0  0  0
  -39.9742    4.0805    9.3432 C   0  0  0  0  0  0  0  0  0  0  0  0
  -40.5520    3.1847   10.1153 N   0  0  0  0  0  0  0  0  0  0  0  0
  -41.6295    2.7084    9.4026 N   0  0  0  0  0  0  0  0  0  0  0  0
  -41.7179    3.2980    8.2172 N   0  0  0  0  0  0  0  0  0  0  0  0
  -40.6849    4.1509    8.1772 N   0  0  0  0  0  0  0  0  0  0  0  0
  -40.4695    4.7415    7.4196 H   0  0  0  0  0  0  0  0  0  0  0  0
  -35.3712    5.1039   12.2392 C   0  0  0  0  0  0  0  0  0  0  0  0
  -36.1963    6.2791   11.7371 C   0  0  0  0  0  0  0  0  0  0  0  0
 15 16  1  0
 16  1  1  0
  1  2  2  0
  2  3  1  0
  2  4  1  0
  4  5  1  0
  5  9  1  0
  9 10  2  0
 10 11  1  0
 11 12  2  0
 12 13  1  0
  5  6  1  0
  6  7  2  0
  6  1  1  0
 13  9  1  0
  4  8  1  0
 13 14  1  0
M  END
> <minimizedAffinity>
-4.76298

> <CNNscore>
0.6117377877

> <CNNaffinity>
3.8995463848

> <CNN_VS>
2.3854999542

> <CNNaffinity_variance>
0.6006771922

$$$$



 16 17  0  0  0  0  0  0  0  0999 V2000
  -35.7873    7.0866    9.3529 C   0  0  0  0  0  0  0  0  0  0  0  0
  -36.5415    6.0003    9.6103 C   0  0  0  0  0  0  0  0  0  0  0  0
  -37.4806    5.3025    8.6854 C   0  0  0  0  0  0  0  0  0  0  0  0
  -36.3608    5.5226   10.9012 N   0  0  0  0  0  0  0  0  0  0  0  0
  -35.3468    6.2846   11.4586 N   0  0  0  0  0  0  0  0  0  0  0  0
  -34.9837    7.3005   10.5903 C   0  0  0  0  0  0  0  0  0  0  0  0
  -34.1570    8.1825   10.7618 O   0  0  0  0  0  0  0  0  0  0  0  0
  -36.8545    4.7891   11.3341 H   0  0  0  0  0  0  0  0  0  0  0  0
  -34.8098    6.0898   12.6989 C   0  0  0  0  0  0  0  0  0  0  0  0
  -35.4198    6.0370   13.8641 N   0  0  0  0  0  0  0  0  0  0  0  0
  -34.4351    5.8026   14.7974 N   0  0  0  0  0  0  0  0  0  0  0  0
  -33.2428    5.7099   14.2225 N   0  0  0  0  0  0  0  0  0  0  0  0
  -33.4741    5.8922   12.9151 N   0  0  0  0  0  0  0  0  0  0  0  0
  -32.7837    5.8849   12.2133 H   0  0  0  0  0  0  0  0  0  0  0  0
  -36.7092    9.0616    8.1427 C   0  0  0  0  0  0  0  0  0  0  0  0
  -35.6615    7.9589    8.1582 C   0  0  0  0  0  0  0  0  0  0  0  0
 15 16  1  0
 16  1  1  0
  1  2  2  0
  2  3  1  0
  2  4  1  0
  4  5  1  0
  5  9  1  0
  9 10  2  0
 10 11  1  0
 11 12  2  0
 12 13  1  0
  5  6  1  0
  6  7  2  0
  6  1  1  0
 13  9  1  0
  4  8  1  0
 13 14  1  0
M  END
> <minimizedAffinity>
-5.14411

> <CNNscore>
0.6071735620

> <CNNaffinity>
3.4284908772

> <CNN_VS>
2.0816891193

> <CNNaffinity_variance>
1.0507518053

$$$$



 16 17  0  0  0  0  0  0  0  0999 V2000
  -39.6619    9.3213   21.9836 C   0  0  0  0  0  0  0  0  0  0  0  0
  -38.7797    9.9468   21.1800 C   0  0  0  0  0  0  0  0  0  0  0  0
  -38.7829   11.3786   20.7624 C   0  0  0  0  0  0  0  0  0  0  0  0
  -37.7712    9.1008   20.7390 N   0  0  0  0  0  0  0  0  0  0  0  0
  -37.9627    7.8946   21.3933 N   0  0  0  0  0  0  0  0  0  0  0  0
  -39.1346    7.9345   22.1300 C   0  0  0  0  0  0  0  0  0  0  0  0
  -39.6389    7.0452   22.7974 O   0  0  0  0  0  0  0  0  0  0  0  0
  -37.0617    9.3151   20.0910 H   0  0  0  0  0  0  0  0  0  0  0  0
  -37.1393    6.8096   21.2960 C   0  0  0  0  0  0  0  0  0  0  0  0
  -36.2508    6.5277   20.3666 N   0  0  0  0  0  0  0  0  0  0  0  0
  -35.6761    5.3339   20.7412 N   0  0  0  0  0  0  0  0  0  0  0  0
  -36.1954    4.8882   21.8780 N   0  0  0  0  0  0  0  0  0  0  0  0
  -37.1099    5.8051   22.2232 N   0  0  0  0  0  0  0  0  0  0  0  0
  -37.6773    5.7617   23.0266 H   0  0  0  0  0  0  0  0  0  0  0  0
  -42.1454    9.4789   21.8336 C   0  0  0  0  0  0  0  0  0  0  0  0
  -40.9027    9.7793   22.6578 C   0  0  0  0  0  0  0  0  0  0  0  0
 15 16  1  0
 16  1  1  0
  1  2  2  0
  2  3  1  0
  2  4  1  0
  4  5  1  0
  5  9  1  0
  9 10  2  0
 10 11  1  0
 11 12  2  0
 12 13  1  0
  5  6  1  0
  6  7  2  0
  6  1  1  0
 13  9  1  0
  4  8  1  0
 13 14  1  0
M  END
> <minimizedAffinity>
-4.73220

> <CNNscore>
0.5994939804

> <CNNaffinity>
3.5725317001

> <CNN_VS>
2.1417112350

> <CNNaffinity_variance>
0.5660972595

$$$$



 16 17  0  0  0  0  0  0  0  0999 V2000
  -35.8448    6.0141   11.1706 C   0  0  0  0  0  0  0  0  0  0  0  0
  -36.2911    4.8922   11.7687 C   0  0  0  0  0  0  0  0  0  0  0  0
  -37.0720    3.7802   11.1539 C   0  0  0  0  0  0  0  0  0  0  0  0
  -35.9327    4.8266   13.1083 N   0  0  0  0  0  0  0  0  0  0  0  0
  -35.1137    5.9187   13.3449 N   0  0  0  0  0  0  0  0  0  0  0  0
  -35.0588    6.7241   12.2198 C   0  0  0  0  0  0  0  0  0  0  0  0
  -34.4702    7.7842   12.0765 O   0  0  0  0  0  0  0  0  0  0  0  0
  -36.2060    4.1410   13.7599 H   0  0  0  0  0  0  0  0  0  0  0  0
  -34.4836    6.1859   14.5266 C   0  0  0  0  0  0  0  0  0  0  0  0
  -33.4150    6.9228   14.7446 N   0  0  0  0  0  0  0  0  0  0  0  0
  -33.2002    6.8864   16.1041 N   0  0  0  0  0  0  0  0  0  0  0  0
  -34.1167    6.1457   16.7141 N   0  0  0  0  0  0  0  0  0  0  0  0
  -34.9153    5.7056   15.7319 N   0  0  0  0  0  0  0  0  0  0  0  0
  -35.6979    5.1220   15.8594 H   0  0  0  0  0  0  0  0  0  0  0  0
  -34.9580    7.6038    9.4674 C   0  0  0  0  0  0  0  0  0  0  0  0
  -36.0002    6.5447    9.7929 C   0  0  0  0  0  0  0  0  0  0  0  0
 15 16  1  0
 16  1  1  0
  1  2  2  0
  2  3  1  0
  2  4  1  0
  4  5  1  0
  5  9  1  0
  9 10  2  0
 10 11  1  0
 11 12  2  0
 12 13  1  0
  5  6  1  0
  6  7  2  0
  6  1  1  0
 13  9  1  0
  4  8  1  0
 13 14  1  0
M  END
> <minimizedAffinity>
-6.46357

> <CNNscore>
0.5860987902

> <CNNaffinity>
3.5176422596

> <CNN_VS>
2.0616858006

> <CNNaffinity_variance>
1.1341873407

$$$$



 16 17  0  0  0  0  0  0  0  0999 V2000
  -33.7184    9.6866   19.2600 C   0  0  0  0  0  0  0  0  0  0  0  0
  -33.0443    8.8172   20.0380 C   0  0  0  0  0  0  0  0  0  0  0  0
  -33.1244    7.3280   20.0220 C   0  0  0  0  0  0  0  0  0  0  0  0
  -32.1845    9.4535   20.9229 N   0  0  0  0  0  0  0  0  0  0  0  0
  -32.2332   10.8021   20.6094 N   0  0  0  0  0  0  0  0  0  0  0  0
  -33.1938   11.0298   19.6382 C   0  0  0  0  0  0  0  0  0  0  0  0
  -33.5379   12.0946   19.1499 O   0  0  0  0  0  0  0  0  0  0  0  0
  -31.6475    9.0308   21.6316 H   0  0  0  0  0  0  0  0  0  0  0  0
  -31.4747   11.7728   21.1987 C   0  0  0  0  0  0  0  0  0  0  0  0
  -30.2408   11.6962   21.6506 N   0  0  0  0  0  0  0  0  0  0  0  0
  -29.9342   12.9498   22.1303 N   0  0  0  0  0  0  0  0  0  0  0  0
  -30.9544   13.7842   21.9764 N   0  0  0  0  0  0  0  0  0  0  0  0
  -31.9165   13.0512   21.3991 N   0  0  0  0  0  0  0  0  0  0  0  0
  -32.8102   13.3844   21.1551 H   0  0  0  0  0  0  0  0  0  0  0  0
  -34.1473    9.1257   16.8691 C   0  0  0  0  0  0  0  0  0  0  0  0
  -34.7541    9.4994   18.2130 C   0  0  0  0  0  0  0  0  0  0  0  0
 15 16  1  0
 16  1  1  0
  1  2  2  0
  2  3  1  0
  2  4  1  0
  4  5  1  0
  5  9  1  0
  9 10  2  0
 10 11  1  0
 11 12  2  0
 12 13  1  0
  5  6  1  0
  6  7  2  0
  6  1  1  0
 13  9  1  0
  4  8  1  0
 13 14  1  0
M  END
> <minimizedAffinity>
-5.50449

> <CNNscore>
0.5661367178

> <CNNaffinity>
4.0552887917

> <CNN_VS>
2.2958478928

> <CNNaffinity_variance>
0.2748144567

$$$$
