


 16 16  0  0  0  0  0  0  0  0999 V2000
   44.6289    5.8462   26.8771 C   0  0  0  0  0  0  0  0  0  0  0  0
   43.5096    5.1014   27.3659 O   0  0  0  0  0  0  0  0  0  0  0  0
   44.8138    5.3927   25.4496 C   0  0  0  0  0  0  0  0  0  0  0  0
   44.4834    6.1422   24.3847 C   0  0  0  0  0  0  0  0  0  0  0  0
   43.8446    7.4904   24.5144 C   0  0  0  0  0  0  0  0  0  0  0  0
   42.7545    7.5725   23.5958 O   0  0  0  0  0  0  0  0  0  0  0  0
   43.3100    7.7790   25.9356 C   0  0  0  0  0  0  0  0  0  0  0  0
   43.0552    9.1812   26.0815 O   0  0  0  0  0  0  0  0  0  0  0  0
   44.3083    7.3427   27.0034 C   0  0  0  0  0  0  0  0  0  0  0  0
   43.6961    4.1523   27.2930 H   0  0  0  0  0  0  0  0  0  0  0  0
   42.0923    6.8998   23.8190 H   0  0  0  0  0  0  0  0  0  0  0  0
   43.8820    9.6742   25.9621 H   0  0  0  0  0  0  0  0  0  0  0  0
   46.4594    4.4473   27.7307 O   0  0  0  0  0  0  0  0  0  0  0  0
   45.8868    5.5292   27.7178 C   0  0  0  0  0  0  0  0  0  0  0  0
   46.3312    6.5470   28.4806 O   0  0  0  0  0  0  0  0  0  0  0  0
   45.8876    7.3723   28.4654 H   0  0  0  0  0  0  0  0  0  0  0  0
 13 14  2  0
 14 15  1  0
 14  1  1  0
  1  2  1  0
  1  3  1  0
  3  4  2  0
  4  5  1  0
  5  6  1  0
  5  7  1  0
  7  8  1  0
  7  9  1  0
  9  1  1  0
 15 16  1  0
  2 10  1  0
  6 11  1  0
  8 12  1  0
M  END
> <minimizedAffinity>
-8.59418

> <CNNscore>
0.9465935230

> <CNNaffinity>
4.6072545052

> <CNN_VS>
4.3611974716

> <CNNaffinity_variance>
0.0755954012

$$$$



 16 16  0  0  0  0  0  0  0  0999 V2000
   44.9827    7.0004   26.7841 C   0  0  0  0  0  0  0  0  0  0  0  0
   45.9084    8.0688   26.5652 O   0  0  0  0  0  0  0  0  0  0  0  0
   43.7406    7.6586   27.3334 C   0  0  0  0  0  0  0  0  0  0  0  0
   42.6134    7.8258   26.6216 C   0  0  0  0  0  0  0  0  0  0  0  0
   42.4991    7.4193   25.1849 C   0  0  0  0  0  0  0  0  0  0  0  0
   41.8739    8.4764   24.4566 O   0  0  0  0  0  0  0  0  0  0  0  0
   43.8633    7.1114   24.5266 C   0  0  0  0  0  0  0  0  0  0  0  0
   43.6598    6.3934   23.3037 O   0  0  0  0  0  0  0  0  0  0  0  0
   44.7494    6.2794   25.4485 C   0  0  0  0  0  0  0  0  0  0  0  0
   46.0670    8.5355   27.4007 H   0  0  0  0  0  0  0  0  0  0  0  0
   42.4262    9.2724   24.5040 H   0  0  0  0  0  0  0  0  0  0  0  0
   43.2170    5.5514   23.4930 H   0  0  0  0  0  0  0  0  0  0  0  0
   46.6240    6.1399   28.3972 O   0  0  0  0  0  0  0  0  0  0  0  0
   45.5633    5.9940   27.8037 C   0  0  0  0  0  0  0  0  0  0  0  0
   44.8145    4.8917   28.0028 O   0  0  0  0  0  0  0  0  0  0  0  0
   44.0038    4.7871   27.5449 H   0  0  0  0  0  0  0  0  0  0  0  0
 13 14  2  0
 14 15  1  0
 14  1  1  0
  1  2  1  0
  1  3  1  0
  3  4  2  0
  4  5  1  0
  5  6  1  0
  5  7  1  0
  7  8  1  0
  7  9  1  0
  9  1  1  0
 15 16  1  0
  2 10  1  0
  6 11  1  0
  8 12  1  0
M  END
> <minimizedAffinity>
-6.97547

> <CNNscore>
0.7811869383

> <CNNaffinity>
4.2998561859

> <CNN_VS>
3.3589913845

> <CNNaffinity_variance>
0.0716227964

$$$$



 16 16  0  0  0  0  0  0  0  0999 V2000
   52.3347   11.7377   30.2827 C   0  0  0  0  0  0  0  0  0  0  0  0
   53.6084   12.1572   29.7845 O   0  0  0  0  0  0  0  0  0  0  0  0
   52.4074   10.2313   30.3379 C   0  0  0  0  0  0  0  0  0  0  0  0
   52.5270    9.5361   31.4813 C   0  0  0  0  0  0  0  0  0  0  0  0
   52.6546   10.1985   32.8183 C   0  0  0  0  0  0  0  0  0  0  0  0
   53.7060    9.5640   33.5469 O   0  0  0  0  0  0  0  0  0  0  0  0
   52.9666   11.7094   32.7243 C   0  0  0  0  0  0  0  0  0  0  0  0
   52.7147   12.3353   33.9881 O   0  0  0  0  0  0  0  0  0  0  0  0
   52.1134   12.3870   31.6566 C   0  0  0  0  0  0  0  0  0  0  0  0
   53.7641   11.7552   28.9156 H   0  0  0  0  0  0  0  0  0  0  0  0
   54.5434    9.6772   33.0706 H   0  0  0  0  0  0  0  0  0  0  0  0
   51.7782   12.2324   34.2189 H   0  0  0  0  0  0  0  0  0  0  0  0
   51.3662   12.4228   28.1311 O   0  0  0  0  0  0  0  0  0  0  0  0
   51.2117   12.1952   29.3240 C   0  0  0  0  0  0  0  0  0  0  0  0
   50.0031   12.3510   29.8988 O   0  0  0  0  0  0  0  0  0  0  0  0
   49.8926   12.1748   30.8124 H   0  0  0  0  0  0  0  0  0  0  0  0
 13 14  2  0
 14 15  1  0
 14  1  1  0
  1  2  1  0
  1  3  1  0
  3  4  2  0
  4  5  1  0
  5  6  1  0
  5  7  1  0
  7  8  1  0
  7  9  1  0
  9  1  1  0
 15 16  1  0
  2 10  1  0
  6 11  1  0
  8 12  1  0
M  END
> <minimizedAffinity>
-4.95812

> <CNNscore>
0.7194108367

> <CNNaffinity>
2.6848685741

> <CNN_VS>
1.9315235615

> <CNNaffinity_variance>
0.4339044094

$$$$



 16 16  0  0  0  0  0  0  0  0999 V2000
   53.7692    9.3171   31.8174 C   0  0  0  0  0  0  0  0  0  0  0  0
   54.6571   10.0012   30.9286 O   0  0  0  0  0  0  0  0  0  0  0  0
   53.5314    7.9697   31.1805 C   0  0  0  0  0  0  0  0  0  0  0  0
   54.0710    6.8275   31.6382 C   0  0  0  0  0  0  0  0  0  0  0  0
   55.0115    6.7900   32.8029 C   0  0  0  0  0  0  0  0  0  0  0  0
   56.1213    5.9554   32.4704 O   0  0  0  0  0  0  0  0  0  0  0  0
   55.5487    8.1839   33.1996 C   0  0  0  0  0  0  0  0  0  0  0  0
   56.1293    8.1246   34.5080 O   0  0  0  0  0  0  0  0  0  0  0  0
   54.4371    9.2286   33.1973 C   0  0  0  0  0  0  0  0  0  0  0  0
   54.2496   10.0658   30.0507 H   0  0  0  0  0  0  0  0  0  0  0  0
   56.5930    6.3320   31.7110 H   0  0  0  0  0  0  0  0  0  0  0  0
   55.4509    7.8662   35.1513 H   0  0  0  0  0  0  0  0  0  0  0  0
   51.7734   10.4984   31.0062 O   0  0  0  0  0  0  0  0  0  0  0  0
   52.4426   10.0996   31.9505 C   0  0  0  0  0  0  0  0  0  0  0  0
   52.0517   10.3430   33.2167 O   0  0  0  0  0  0  0  0  0  0  0  0
   52.5693   10.0345   33.9343 H   0  0  0  0  0  0  0  0  0  0  0  0
 13 14  2  0
 14 15  1  0
 14  1  1  0
  1  2  1  0
  1  3  1  0
  3  4  2  0
  4  5  1  0
  5  6  1  0
  5  7  1  0
  7  8  1  0
  7  9  1  0
  9  1  1  0
 15 16  1  0
  2 10  1  0
  6 11  1  0
  8 12  1  0
M  END
> <minimizedAffinity>
-4.57324

> <CNNscore>
0.7019316554

> <CNNaffinity>
2.7888176441

> <CNN_VS>
1.9575593472

> <CNNaffinity_variance>
0.4773068130

$$$$



 16 16  0  0  0  0  0  0  0  0999 V2000
   52.7668   10.1974   32.2827 C   0  0  0  0  0  0  0  0  0  0  0  0
   51.6607   10.0680   33.1806 O   0  0  0  0  0  0  0  0  0  0  0  0
   53.9966   10.0560   33.1460 C   0  0  0  0  0  0  0  0  0  0  0  0
   54.7737    8.9601   33.1558 C   0  0  0  0  0  0  0  0  0  0  0  0
   54.4604    7.7420   32.3429 C   0  0  0  0  0  0  0  0  0  0  0  0
   54.6218    6.5864   33.1660 O   0  0  0  0  0  0  0  0  0  0  0  0
   53.0236    7.7405   31.7733 C   0  0  0  0  0  0  0  0  0  0  0  0
   52.9160    6.7609   30.7335 O   0  0  0  0  0  0  0  0  0  0  0  0
   52.6492    9.1070   31.2078 C   0  0  0  0  0  0  0  0  0  0  0  0
   51.7199   10.7507   33.8671 H   0  0  0  0  0  0  0  0  0  0  0  0
   53.9962    6.6268   33.9063 H   0  0  0  0  0  0  0  0  0  0  0  0
   53.5275    6.9842   30.0144 H   0  0  0  0  0  0  0  0  0  0  0  0
   53.6442   12.4033   31.6497 O   0  0  0  0  0  0  0  0  0  0  0  0
   52.7369   11.5831   31.5981 C   0  0  0  0  0  0  0  0  0  0  0  0
   51.6035   11.8588   30.9238 O   0  0  0  0  0  0  0  0  0  0  0  0
   50.9135   11.2259   30.8888 H   0  0  0  0  0  0  0  0  0  0  0  0
 13 14  2  0
 14 15  1  0
 14  1  1  0
  1  2  1  0
  1  3  1  0
  3  4  2  0
  4  5  1  0
  5  6  1  0
  5  7  1  0
  7  8  1  0
  7  9  1  0
  9  1  1  0
 15 16  1  0
  2 10  1  0
  6 11  1  0
  8 12  1  0
M  END
> <minimizedAffinity>
-5.20809

> <CNNscore>
0.6407118440

> <CNNaffinity>
2.6543653011

> <CNN_VS>
1.7006832361

> <CNNaffinity_variance>
0.5393142104

$$$$



 16 16  0  0  0  0  0  0  0  0999 V2000
   36.7224   17.9799   35.0626 C   0  0  0  0  0  0  0  0  0  0  0  0
   36.5351   18.3802   33.7020 O   0  0  0  0  0  0  0  0  0  0  0  0
   35.7108   18.7741   35.8522 C   0  0  0  0  0  0  0  0  0  0  0  0
   34.5914   18.2420   36.3708 C   0  0  0  0  0  0  0  0  0  0  0  0
   34.2109   16.8080   36.1672 C   0  0  0  0  0  0  0  0  0  0  0  0
   32.8281   16.7449   35.8171 O   0  0  0  0  0  0  0  0  0  0  0  0
   35.0293   16.1104   35.0570 C   0  0  0  0  0  0  0  0  0  0  0  0
   34.8796   14.6897   35.1652 O   0  0  0  0  0  0  0  0  0  0  0  0
   36.5105   16.4618   35.1552 C   0  0  0  0  0  0  0  0  0  0  0  0
   36.6656   19.3383   33.6260 H   0  0  0  0  0  0  0  0  0  0  0  0
   32.6837   17.2189   34.9832 H   0  0  0  0  0  0  0  0  0  0  0  0
   35.2188   14.3934   36.0242 H   0  0  0  0  0  0  0  0  0  0  0  0
   38.8626   19.1859   35.0261 O   0  0  0  0  0  0  0  0  0  0  0  0
   38.1594   18.3157   35.5228 C   0  0  0  0  0  0  0  0  0  0  0  0
   38.6233   17.5567   36.5348 O   0  0  0  0  0  0  0  0  0  0  0  0
   38.0792   16.8925   36.9099 H   0  0  0  0  0  0  0  0  0  0  0  0
 13 14  2  0
 14 15  1  0
 14  1  1  0
  1  2  1  0
  1  3  1  0
  3  4  2  0
  4  5  1  0
  5  6  1  0
  5  7  1  0
  7  8  1  0
  7  9  1  0
  9  1  1  0
 15 16  1  0
  2 10  1  0
  6 11  1  0
  8 12  1  0
M  END
> <minimizedAffinity>
-4.15959

> <CNNscore>
0.5826019645

> <CNNaffinity>
2.7850420475

> <CNN_VS>
1.6225709915

> <CNNaffinity_variance>
0.6386541128

$$$$



 16 16  0  0  0  0  0  0  0  0999 V2000
   51.9219   11.8034   29.8440 C   0  0  0  0  0  0  0  0  0  0  0  0
   50.4952   11.8179   29.9477 O   0  0  0  0  0  0  0  0  0  0  0  0
   52.4110   12.6586   30.9873 C   0  0  0  0  0  0  0  0  0  0  0  0
   52.9834   12.1587   32.0953 C   0  0  0  0  0  0  0  0  0  0  0  0
   53.1435   10.6879   32.3268 C   0  0  0  0  0  0  0  0  0  0  0  0
   52.7398   10.3865   33.6629 O   0  0  0  0  0  0  0  0  0  0  0  0
   52.3086    9.8221   31.3561 C   0  0  0  0  0  0  0  0  0  0  0  0
   52.7792    8.4693   31.3869 O   0  0  0  0  0  0  0  0  0  0  0  0
   52.3995   10.3463   29.9264 C   0  0  0  0  0  0  0  0  0  0  0  0
   50.1766   12.7327   29.8974 H   0  0  0  0  0  0  0  0  0  0  0  0
   51.8032   10.6117   33.7762 H   0  0  0  0  0  0  0  0  0  0  0  0
   53.7049    8.4424   31.0983 H   0  0  0  0  0  0  0  0  0  0  0  0
   51.6497   13.0847   27.7654 O   0  0  0  0  0  0  0  0  0  0  0  0
   52.3628   12.4008   28.4882 C   0  0  0  0  0  0  0  0  0  0  0  0
   53.6245   12.1040   28.1204 O   0  0  0  0  0  0  0  0  0  0  0  0
   54.1643   11.5799   28.6789 H   0  0  0  0  0  0  0  0  0  0  0  0
 13 14  2  0
 14 15  1  0
 14  1  1  0
  1  2  1  0
  1  3  1  0
  3  4  2  0
  4  5  1  0
  5  6  1  0
  5  7  1  0
  7  8  1  0
  7  9  1  0
  9  1  1  0
 15 16  1  0
  2 10  1  0
  6 11  1  0
  8 12  1  0
M  END
> <minimizedAffinity>
-4.79298

> <CNNscore>
0.5008890033

> <CNNaffinity>
2.6772251129

> <CNN_VS>
1.3409925699

> <CNNaffinity_variance>
0.4035652578

$$$$



 16 16  0  0  0  0  0  0  0  0999 V2000
   51.7800   12.3637   30.2948 C   0  0  0  0  0  0  0  0  0  0  0  0
   50.3586   12.2184   30.2264 O   0  0  0  0  0  0  0  0  0  0  0  0
   52.0104   13.7122   30.9321 C   0  0  0  0  0  0  0  0  0  0  0  0
   52.4319   13.8719   32.1978 C   0  0  0  0  0  0  0  0  0  0  0  0
   52.6643   12.7169   33.1222 C   0  0  0  0  0  0  0  0  0  0  0  0
   52.0735   13.0150   34.3874 O   0  0  0  0  0  0  0  0  0  0  0  0
   52.0666   11.3893   32.6034 C   0  0  0  0  0  0  0  0  0  0  0  0
   52.6281   10.2892   33.3294 O   0  0  0  0  0  0  0  0  0  0  0  0
   52.3480   11.1973   31.1164 C   0  0  0  0  0  0  0  0  0  0  0  0
   49.9833   12.9486   29.7098 H   0  0  0  0  0  0  0  0  0  0  0  0
   51.1164   13.1291   34.2785 H   0  0  0  0  0  0  0  0  0  0  0  0
   53.5877   10.2655   33.1893 H   0  0  0  0  0  0  0  0  0  0  0  0
   51.9007   12.8664   27.8928 O   0  0  0  0  0  0  0  0  0  0  0  0
   52.3881   12.3206   28.8742 C   0  0  0  0  0  0  0  0  0  0  0  0
   53.5255   11.6067   28.7649 O   0  0  0  0  0  0  0  0  0  0  0  0
   53.8926   11.1917   29.5206 H   0  0  0  0  0  0  0  0  0  0  0  0
 13 14  2  0
 14 15  1  0
 14  1  1  0
  1  2  1  0
  1  3  1  0
  3  4  2  0
  4  5  1  0
  5  6  1  0
  5  7  1  0
  7  8  1  0
  7  9  1  0
  9  1  1  0
 15 16  1  0
  2 10  1  0
  6 11  1  0
  8 12  1  0
M  END
> <minimizedAffinity>
-5.03443

> <CNNscore>
0.4408294559

> <CNNaffinity>
2.5635097027

> <CNN_VS>
1.1300705671

> <CNNaffinity_variance>
0.4693673551

$$$$



 16 16  0  0  0  0  0  0  0  0999 V2000
   54.5869    9.7334   33.2670 C   0  0  0  0  0  0  0  0  0  0  0  0
   53.4081   10.0750   34.0019 O   0  0  0  0  0  0  0  0  0  0  0  0
   54.7294    8.2387   33.4189 C   0  0  0  0  0  0  0  0  0  0  0  0
   54.4634    7.3645   32.4339 C   0  0  0  0  0  0  0  0  0  0  0  0
   53.9441    7.7909   31.0956 C   0  0  0  0  0  0  0  0  0  0  0  0
   52.8636    6.9331   30.7275 O   0  0  0  0  0  0  0  0  0  0  0  0
   53.4390    9.2515   31.0734 C   0  0  0  0  0  0  0  0  0  0  0  0
   53.3070    9.6976   29.7184 O   0  0  0  0  0  0  0  0  0  0  0  0
   54.3975   10.1817   31.8105 C   0  0  0  0  0  0  0  0  0  0  0  0
   53.5114    9.7982   34.9257 H   0  0  0  0  0  0  0  0  0  0  0  0
   52.1460    7.0214   31.3740 H   0  0  0  0  0  0  0  0  0  0  0  0
   54.1732    9.6692   29.2828 H   0  0  0  0  0  0  0  0  0  0  0  0
   56.9166    9.9530   34.0158 O   0  0  0  0  0  0  0  0  0  0  0  0
   55.8140   10.4619   33.8613 C   0  0  0  0  0  0  0  0  0  0  0  0
   55.5926   11.7387   34.2301 O   0  0  0  0  0  0  0  0  0  0  0  0
   54.7459   12.1213   34.1087 H   0  0  0  0  0  0  0  0  0  0  0  0
 13 14  2  0
 14 15  1  0
 14  1  1  0
  1  2  1  0
  1  3  1  0
  3  4  2  0
  4  5  1  0
  5  6  1  0
  5  7  1  0
  7  8  1  0
  7  9  1  0
  9  1  1  0
 15 16  1  0
  2 10  1  0
  6 11  1  0
  8 12  1  0
M  END
> <minimizedAffinity>
-4.61821

> <CNNscore>
0.4040556848

> <CNNaffinity>
2.5782153606

> <CNN_VS>
1.0417425632

> <CNNaffinity_variance>
0.4774654806

$$$$
