


 45 49  0  0  0  0  0  0  0  0999 V2000
    5.3426    8.5350   21.4326 C   0  0  0  0  0  0  0  0  0  0  0  0
    4.2210    9.3114   21.6892 C   0  0  0  0  0  0  0  0  0  0  0  0
    3.7833    9.0724   23.0149 C   0  0  0  0  0  0  0  0  0  0  0  0
    2.7094    9.5590   23.7854 C   0  0  0  0  0  0  0  0  0  0  0  0
    2.5236    9.1068   25.0961 C   0  0  0  0  0  0  0  0  0  0  0  0
    3.4054    8.1776   25.6382 C   0  0  0  0  0  0  0  0  0  0  0  0
    4.4826    7.6820   24.8906 C   0  0  0  0  0  0  0  0  0  0  0  0
    4.6559    8.1433   23.5746 C   0  0  0  0  0  0  0  0  0  0  0  0
    5.6149    7.8531   22.6134 N   0  0  0  0  0  0  0  0  0  0  0  0
    5.5704    7.4982   19.2999 N   0  0  0  0  0  0  0  0  0  0  0  0
    6.0927    8.4077   20.1939 C   0  0  0  0  0  0  0  0  0  0  0  0
    7.1176    9.0375   19.9496 O   0  0  0  0  0  0  0  0  0  0  0  0
    4.7813    6.9698   19.5595 H   0  0  0  0  0  0  0  0  0  0  0  0
    6.1503    7.2999   17.9923 C   0  0  0  0  0  0  0  0  0  0  0  0
    7.8814    3.3213   17.7248 C   0  0  0  0  0  0  0  0  0  0  0  0
    6.9805    3.7764   16.7523 C   0  0  0  0  0  0  0  0  0  0  0  0
    6.4316    5.0645   16.8288 C   0  0  0  0  0  0  0  0  0  0  0  0
    6.7796    5.9302   17.8707 C   0  0  0  0  0  0  0  0  0  0  0  0
    7.6845    5.4825   18.8377 C   0  0  0  0  0  0  0  0  0  0  0  0
    8.2327    4.1987   18.7629 C   0  0  0  0  0  0  0  0  0  0  0  0
    7.9910    1.2136   16.4392 C   0  0  0  0  0  0  0  0  0  0  0  0
    8.4889    1.9278   17.6902 N   0  0  0  0  0  0  0  0  0  0  0  0
   10.0108    2.0522   17.6816 C   0  0  0  0  0  0  0  0  0  0  0  0
    8.1019    1.0911   18.9060 C   0  0  0  0  0  0  0  0  0  0  0  0
    1.4431    9.6565   25.7285 O   0  0  0  0  0  0  0  0  0  0  0  0
    0.1776    9.5448   25.0760 C   0  0  0  0  0  0  0  0  0  0  0  0
   -0.6731   10.7152   25.5050 C   0  0  0  0  0  0  0  0  0  0  0  0
   -1.9218   10.5075   26.1080 C   0  0  0  0  0  0  0  0  0  0  0  0
   -2.7094   11.5941   26.4926 C   0  0  0  0  0  0  0  0  0  0  0  0
   -2.2624   12.8957   26.2736 C   0  0  0  0  0  0  0  0  0  0  0  0
   -1.0288   13.1138   25.6634 C   0  0  0  0  0  0  0  0  0  0  0  0
   -0.2385   12.0295   25.2787 C   0  0  0  0  0  0  0  0  0  0  0  0
    6.7573    6.9659   22.8394 C   0  0  0  0  0  0  0  0  0  0  0  0
    7.8681    7.6520   23.6012 C   0  0  0  0  0  0  0  0  0  0  0  0
    8.4791    8.7978   23.0742 C   0  0  0  0  0  0  0  0  0  0  0  0
    9.5299    9.4153   23.7513 C   0  0  0  0  0  0  0  0  0  0  0  0
    9.9837    8.8932   24.9637 C   0  0  0  0  0  0  0  0  0  0  0  0
    9.3845    7.7555   25.5151 C   0  0  0  0  0  0  0  0  0  0  0  0
    8.3339    7.1361   24.8264 C   0  0  0  0  0  0  0  0  0  0  0  0
    9.8960    7.2179   26.8170 C   0  0  0  0  0  0  0  0  0  0  0  0
    9.0612    7.0194   27.7874 N   0  0  0  0  0  0  0  0  0  0  0  0
   11.2104    6.9218   27.0033 N   0  0  0  0  0  0  0  0  0  0  0  0
    8.1069    7.2293   27.6665 H   0  0  0  0  0  0  0  0  0  0  0  0
   11.8559    7.0677   26.2744 H   0  0  0  0  0  0  0  0  0  0  0  0
   11.5162    6.5617   27.8670 H   0  0  0  0  0  0  0  0  0  0  0  0
 21 22  1  0
 22 23  1  0
 22 24  1  0
 22 15  1  0
 15 16  2  0
 16 17  1  0
 17 18  2  0
 18 14  1  0
 14 10  1  0
 10 11  1  0
 11 12  2  0
 11  1  1  0
  1  2  2  0
  2  3  1  0
  3  4  2  0
  4  5  1  0
  5 25  1  0
 25 26  1  0
 26 27  1  0
 27 28  2  0
 28 29  1  0
 29 30  2  0
 30 31  1  0
 31 32  2  0
  5  6  2  0
  6  7  1  0
  7  8  2  0
  8  9  1  0
  9 33  1  0
 33 34  1  0
 34 35  2  0
 35 36  1  0
 36 37  2  0
 37 38  1  0
 38 40  1  0
 40 41  2  0
 40 42  1  0
 38 39  2  0
 18 19  1  0
 19 20  2  0
 20 15  1  0
  9  1  1  0
 39 34  1  0
  8  3  1  0
 32 27  1  0
 10 13  1  0
 41 43  1  0
 42 44  1  0
 42 45  1  0
M  CHG 1  22   1
M  END
> <minimizedAffinity>
-9.51271

> <CNNscore>
0.9476395249

> <CNNaffinity>
8.1542167664

> <CNN_VS>
7.7272582054

> <CNNaffinity_variance>
0.0962054208

$$$$



 45 49  0  0  0  0  0  0  0  0999 V2000
    7.5285   10.4820   19.3981 C   0  0  0  0  0  0  0  0  0  0  0  0
    6.6681    9.8725   18.4953 C   0  0  0  0  0  0  0  0  0  0  0  0
    6.8234    8.4672   18.5811 C   0  0  0  0  0  0  0  0  0  0  0  0
    6.2346    7.3822   17.9031 C   0  0  0  0  0  0  0  0  0  0  0  0
    6.6202    6.0720   18.2057 C   0  0  0  0  0  0  0  0  0  0  0  0
    7.5845    5.8432   19.1817 C   0  0  0  0  0  0  0  0  0  0  0  0
    8.1816    6.9078   19.8710 C   0  0  0  0  0  0  0  0  0  0  0  0
    7.7863    8.2188   19.5552 C   0  0  0  0  0  0  0  0  0  0  0  0
    8.1793    9.4495   20.0641 N   0  0  0  0  0  0  0  0  0  0  0  0
    6.7263   12.7163   19.1990 N   0  0  0  0  0  0  0  0  0  0  0  0
    7.7559   11.9010   19.6167 C   0  0  0  0  0  0  0  0  0  0  0  0
    8.7794   12.3584   20.1166 O   0  0  0  0  0  0  0  0  0  0  0  0
    5.9492   12.3141   18.7479 H   0  0  0  0  0  0  0  0  0  0  0  0
    6.7576   14.1452   19.4056 C   0  0  0  0  0  0  0  0  0  0  0  0
    4.2061   16.2047   16.5515 C   0  0  0  0  0  0  0  0  0  0  0  0
    5.0188   16.9271   17.4358 C   0  0  0  0  0  0  0  0  0  0  0  0
    5.8532   16.2648   18.3478 C   0  0  0  0  0  0  0  0  0  0  0  0
    5.9034   14.8678   18.3882 C   0  0  0  0  0  0  0  0  0  0  0  0
    5.1004   14.1442   17.5016 C   0  0  0  0  0  0  0  0  0  0  0  0
    4.2680   14.8027   16.5918 C   0  0  0  0  0  0  0  0  0  0  0  0
    1.8392   16.5118   15.9108 C   0  0  0  0  0  0  0  0  0  0  0  0
    3.2752   16.8804   15.5571 N   0  0  0  0  0  0  0  0  0  0  0  0
    3.4873   18.3909   15.6292 C   0  0  0  0  0  0  0  0  0  0  0  0
    3.5414   16.4460   14.1189 C   0  0  0  0  0  0  0  0  0  0  0  0
    5.9735    5.1161   17.4724 O   0  0  0  0  0  0  0  0  0  0  0  0
    6.7577    4.3585   16.5501 C   0  0  0  0  0  0  0  0  0  0  0  0
    7.4100    3.2295   17.3102 C   0  0  0  0  0  0  0  0  0  0  0  0
    8.7971    3.0345   17.2484 C   0  0  0  0  0  0  0  0  0  0  0  0
    9.3936    1.9817   17.9446 C   0  0  0  0  0  0  0  0  0  0  0  0
    8.6125    1.1112   18.7023 C   0  0  0  0  0  0  0  0  0  0  0  0
    7.2315    1.2879   18.7603 C   0  0  0  0  0  0  0  0  0  0  0  0
    6.6322    2.3402   18.0663 C   0  0  0  0  0  0  0  0  0  0  0  0
    9.1322    9.6135   21.1634 C   0  0  0  0  0  0  0  0  0  0  0  0
    8.5564    9.1640   22.4868 C   0  0  0  0  0  0  0  0  0  0  0  0
    7.1708    9.1872   22.6954 C   0  0  0  0  0  0  0  0  0  0  0  0
    6.6331    8.8107   23.9254 C   0  0  0  0  0  0  0  0  0  0  0  0
    7.4753    8.4075   24.9631 C   0  0  0  0  0  0  0  0  0  0  0  0
    8.8614    8.3672   24.7771 C   0  0  0  0  0  0  0  0  0  0  0  0
    9.3954    8.7533   23.5412 C   0  0  0  0  0  0  0  0  0  0  0  0
    9.7390    7.9321   25.9111 C   0  0  0  0  0  0  0  0  0  0  0  0
    9.1898    7.5159   27.0079 N   0  0  0  0  0  0  0  0  0  0  0  0
   11.0957    7.9513   25.8157 N   0  0  0  0  0  0  0  0  0  0  0  0
    8.2090    7.4966   27.0909 H   0  0  0  0  0  0  0  0  0  0  0  0
   11.5266    8.2652   24.9880 H   0  0  0  0  0  0  0  0  0  0  0  0
   11.6468    7.6512   26.5743 H   0  0  0  0  0  0  0  0  0  0  0  0
 21 22  1  0
 22 23  1  0
 22 24  1  0
 22 15  1  0
 15 16  2  0
 16 17  1  0
 17 18  2  0
 18 14  1  0
 14 10  1  0
 10 11  1  0
 11 12  2  0
 11  1  1  0
  1  2  2  0
  2  3  1  0
  3  4  2  0
  4  5  1  0
  5 25  1  0
 25 26  1  0
 26 27  1  0
 27 28  2  0
 28 29  1  0
 29 30  2  0
 30 31  1  0
 31 32  2  0
  5  6  2  0
  6  7  1  0
  7  8  2  0
  8  9  1  0
  9 33  1  0
 33 34  1  0
 34 35  2  0
 35 36  1  0
 36 37  2  0
 37 38  1  0
 38 40  1  0
 40 41  2  0
 40 42  1  0
 38 39  2  0
 18 19  1  0
 19 20  2  0
 20 15  1  0
  9  1  1  0
 39 34  1  0
  8  3  1  0
 32 27  1  0
 10 13  1  0
 41 43  1  0
 42 44  1  0
 42 45  1  0
M  CHG 1  22   1
M  END
> <minimizedAffinity>
-9.78678

> <CNNscore>
0.8278843760

> <CNNaffinity>
7.5112967491

> <CNN_VS>
6.2184853554

> <CNNaffinity_variance>
0.0466905721

$$$$



 45 49  0  0  0  0  0  0  0  0999 V2000
    4.9884    7.0580   23.3617 C   0  0  0  0  0  0  0  0  0  0  0  0
    4.9488    6.0639   22.3937 C   0  0  0  0  0  0  0  0  0  0  0  0
    5.9356    6.3300   21.4131 C   0  0  0  0  0  0  0  0  0  0  0  0
    6.3219    5.6821   20.2237 C   0  0  0  0  0  0  0  0  0  0  0  0
    7.3485    6.2135   19.4359 C   0  0  0  0  0  0  0  0  0  0  0  0
    7.9899    7.3822   19.8326 C   0  0  0  0  0  0  0  0  0  0  0  0
    7.6238    8.0421   21.0139 C   0  0  0  0  0  0  0  0  0  0  0  0
    6.5895    7.4983   21.7945 C   0  0  0  0  0  0  0  0  0  0  0  0
    6.0256    7.9085   22.9952 N   0  0  0  0  0  0  0  0  0  0  0  0
    2.8309    6.7974   24.3377 N   0  0  0  0  0  0  0  0  0  0  0  0
    4.1266    7.2304   24.5195 C   0  0  0  0  0  0  0  0  0  0  0  0
    4.4974    7.7316   25.5769 O   0  0  0  0  0  0  0  0  0  0  0  0
    2.5586    6.4575   23.4548 H   0  0  0  0  0  0  0  0  0  0  0  0
    1.8623    6.8294   25.4082 C   0  0  0  0  0  0  0  0  0  0  0  0
   -0.6071   10.4038   25.2583 C   0  0  0  0  0  0  0  0  0  0  0  0
    0.5264   10.2828   24.4429 C   0  0  0  0  0  0  0  0  0  0  0  0
    1.3166    9.1248   24.4793 C   0  0  0  0  0  0  0  0  0  0  0  0
    0.9853    8.0583   25.3211 C   0  0  0  0  0  0  0  0  0  0  0  0
   -0.1496    8.1723   26.1295 C   0  0  0  0  0  0  0  0  0  0  0  0
   -0.9385    9.3259   26.0945 C   0  0  0  0  0  0  0  0  0  0  0  0
   -0.6730   12.8084   25.8248 C   0  0  0  0  0  0  0  0  0  0  0  0
   -1.4836   11.6464   25.2630 N   0  0  0  0  0  0  0  0  0  0  0  0
   -1.9391   11.9354   23.8345 C   0  0  0  0  0  0  0  0  0  0  0  0
   -2.7345   11.4760   26.1199 C   0  0  0  0  0  0  0  0  0  0  0  0
    7.6199    5.4882   18.3089 O   0  0  0  0  0  0  0  0  0  0  0  0
    6.8422    4.3112   18.0864 C   0  0  0  0  0  0  0  0  0  0  0  0
    7.7675    3.1210   18.1557 C   0  0  0  0  0  0  0  0  0  0  0  0
    7.3549    1.9304   18.7705 C   0  0  0  0  0  0  0  0  0  0  0  0
    8.2191    0.8363   18.8416 C   0  0  0  0  0  0  0  0  0  0  0  0
    9.5031    0.9219   18.3069 C   0  0  0  0  0  0  0  0  0  0  0  0
    9.9283    2.1047   17.7052 C   0  0  0  0  0  0  0  0  0  0  0  0
    9.0662    3.1999   17.6315 C   0  0  0  0  0  0  0  0  0  0  0  0
    6.4880    9.0663   23.7626 C   0  0  0  0  0  0  0  0  0  0  0  0
    7.9253    8.9172   24.2063 C   0  0  0  0  0  0  0  0  0  0  0  0
    8.9527    9.5378   23.4830 C   0  0  0  0  0  0  0  0  0  0  0  0
   10.2844    9.3749   23.8623 C   0  0  0  0  0  0  0  0  0  0  0  0
   10.6052    8.5875   24.9694 C   0  0  0  0  0  0  0  0  0  0  0  0
    9.5970    7.9646   25.7132 C   0  0  0  0  0  0  0  0  0  0  0  0
    8.2619    8.1269   25.3227 C   0  0  0  0  0  0  0  0  0  0  0  0
    9.9738    7.1239   26.8951 C   0  0  0  0  0  0  0  0  0  0  0  0
   11.1760    6.6478   26.9711 N   0  0  0  0  0  0  0  0  0  0  0  0
    9.0915    6.8573   27.8954 N   0  0  0  0  0  0  0  0  0  0  0  0
   11.8250    6.8329   26.2543 H   0  0  0  0  0  0  0  0  0  0  0  0
    8.1745    7.2127   27.8506 H   0  0  0  0  0  0  0  0  0  0  0  0
    9.3699    6.3088   28.6641 H   0  0  0  0  0  0  0  0  0  0  0  0
 21 22  1  0
 22 23  1  0
 22 24  1  0
 22 15  1  0
 15 16  2  0
 16 17  1  0
 17 18  2  0
 18 14  1  0
 14 10  1  0
 10 11  1  0
 11 12  2  0
 11  1  1  0
  1  2  2  0
  2  3  1  0
  3  4  2  0
  4  5  1  0
  5 25  1  0
 25 26  1  0
 26 27  1  0
 27 28  2  0
 28 29  1  0
 29 30  2  0
 30 31  1  0
 31 32  2  0
  5  6  2  0
  6  7  1  0
  7  8  2  0
  8  9  1  0
  9 33  1  0
 33 34  1  0
 34 35  2  0
 35 36  1  0
 36 37  2  0
 37 38  1  0
 38 40  1  0
 40 41  2  0
 40 42  1  0
 38 39  2  0
 18 19  1  0
 19 20  2  0
 20 15  1  0
  9  1  1  0
 39 34  1  0
  8  3  1  0
 32 27  1  0
 10 13  1  0
 41 43  1  0
 42 44  1  0
 42 45  1  0
M  CHG 1  22   1
M  END
> <minimizedAffinity>
-10.69581

> <CNNscore>
0.8045012951

> <CNNaffinity>
7.8940396309

> <CNN_VS>
6.3507652283

> <CNNaffinity_variance>
0.0019232720

$$$$



 45 49  0  0  0  0  0  0  0  0999 V2000
    4.8720    8.5897   22.8711 C   0  0  0  0  0  0  0  0  0  0  0  0
    4.6229    8.5553   21.5060 C   0  0  0  0  0  0  0  0  0  0  0  0
    5.5703    7.7074   20.8816 C   0  0  0  0  0  0  0  0  0  0  0  0
    5.7998    7.3260   19.5454 C   0  0  0  0  0  0  0  0  0  0  0  0
    6.8563    6.4640   19.2325 C   0  0  0  0  0  0  0  0  0  0  0  0
    7.6776    5.9810   20.2458 C   0  0  0  0  0  0  0  0  0  0  0  0
    7.4658    6.3451   21.5828 C   0  0  0  0  0  0  0  0  0  0  0  0
    6.4023    7.2134   21.8824 C   0  0  0  0  0  0  0  0  0  0  0  0
    5.9447    7.7316   23.0866 N   0  0  0  0  0  0  0  0  0  0  0  0
    2.9889    9.9043   23.5043 N   0  0  0  0  0  0  0  0  0  0  0  0
    4.1964    9.3678   23.8963 C   0  0  0  0  0  0  0  0  0  0  0  0
    4.6523    9.5569   25.0201 O   0  0  0  0  0  0  0  0  0  0  0  0
    2.6879    9.7795   22.5753 H   0  0  0  0  0  0  0  0  0  0  0  0
    2.1537   10.6446   24.4205 C   0  0  0  0  0  0  0  0  0  0  0  0
   -1.7600    8.7737   24.7025 C   0  0  0  0  0  0  0  0  0  0  0  0
   -0.6416    8.1878   25.3108 C   0  0  0  0  0  0  0  0  0  0  0  0
    0.6193    8.7967   25.2332 C   0  0  0  0  0  0  0  0  0  0  0  0
    0.7881   10.0094   24.5573 C   0  0  0  0  0  0  0  0  0  0  0  0
   -0.3271   10.6009   23.9567 C   0  0  0  0  0  0  0  0  0  0  0  0
   -1.5848    9.9953   24.0331 C   0  0  0  0  0  0  0  0  0  0  0  0
   -4.0634    9.0492   25.5545 C   0  0  0  0  0  0  0  0  0  0  0  0
   -3.1422    8.1415   24.7479 N   0  0  0  0  0  0  0  0  0  0  0  0
   -3.6545    7.9699   23.3197 C   0  0  0  0  0  0  0  0  0  0  0  0
   -3.1333    6.7635   25.4029 C   0  0  0  0  0  0  0  0  0  0  0  0
    6.9681    6.1786   17.8999 O   0  0  0  0  0  0  0  0  0  0  0  0
    6.3403    4.9839   17.4327 C   0  0  0  0  0  0  0  0  0  0  0  0
    7.4158    3.9493   17.2079 C   0  0  0  0  0  0  0  0  0  0  0  0
    8.4395    3.7672   18.1484 C   0  0  0  0  0  0  0  0  0  0  0  0
    9.4381    2.8164   17.9298 C   0  0  0  0  0  0  0  0  0  0  0  0
    9.4283    2.0444   16.7696 C   0  0  0  0  0  0  0  0  0  0  0  0
    8.4230    2.2260   15.8220 C   0  0  0  0  0  0  0  0  0  0  0  0
    7.4226    3.1750   16.0382 C   0  0  0  0  0  0  0  0  0  0  0  0
    6.5137    7.3922   24.3920 C   0  0  0  0  0  0  0  0  0  0  0  0
    7.8979    7.9709   24.5768 C   0  0  0  0  0  0  0  0  0  0  0  0
    8.3362    9.0211   23.7590 C   0  0  0  0  0  0  0  0  0  0  0  0
    9.6246    9.5358   23.8966 C   0  0  0  0  0  0  0  0  0  0  0  0
   10.4916    9.0050   24.8533 C   0  0  0  0  0  0  0  0  0  0  0  0
   10.0748    7.9622   25.6878 C   0  0  0  0  0  0  0  0  0  0  0  0
    8.7815    7.4453   25.5397 C   0  0  0  0  0  0  0  0  0  0  0  0
   11.0296    7.4123   26.7034 C   0  0  0  0  0  0  0  0  0  0  0  0
   10.5593    6.8926   27.7927 N   0  0  0  0  0  0  0  0  0  0  0  0
   12.3754    7.4336   26.5071 N   0  0  0  0  0  0  0  0  0  0  0  0
    9.5874    6.8705   27.9479 H   0  0  0  0  0  0  0  0  0  0  0  0
   12.7467    7.8255   25.6838 H   0  0  0  0  0  0  0  0  0  0  0  0
   12.9782    7.0570   27.1883 H   0  0  0  0  0  0  0  0  0  0  0  0
 21 22  1  0
 22 23  1  0
 22 24  1  0
 22 15  1  0
 15 16  2  0
 16 17  1  0
 17 18  2  0
 18 14  1  0
 14 10  1  0
 10 11  1  0
 11 12  2  0
 11  1  1  0
  1  2  2  0
  2  3  1  0
  3  4  2  0
  4  5  1  0
  5 25  1  0
 25 26  1  0
 26 27  1  0
 27 28  2  0
 28 29  1  0
 29 30  2  0
 30 31  1  0
 31 32  2  0
  5  6  2  0
  6  7  1  0
  7  8  2  0
  8  9  1  0
  9 33  1  0
 33 34  1  0
 34 35  2  0
 35 36  1  0
 36 37  2  0
 37 38  1  0
 38 40  1  0
 40 41  2  0
 40 42  1  0
 38 39  2  0
 18 19  1  0
 19 20  2  0
 20 15  1  0
  9  1  1  0
 39 34  1  0
  8  3  1  0
 32 27  1  0
 10 13  1  0
 41 43  1  0
 42 44  1  0
 42 45  1  0
M  CHG 1  22   1
M  END
> <minimizedAffinity>
-9.69152

> <CNNscore>
0.7167787552

> <CNNaffinity>
7.5860862732

> <CNN_VS>
5.4375452995

> <CNNaffinity_variance>
0.0292429049

$$$$



 45 49  0  0  0  0  0  0  0  0999 V2000
    4.8743    8.6334   22.9395 C   0  0  0  0  0  0  0  0  0  0  0  0
    4.6062    8.6028   21.5779 C   0  0  0  0  0  0  0  0  0  0  0  0
    5.5523    7.7665   20.9363 C   0  0  0  0  0  0  0  0  0  0  0  0
    5.7664    7.3933   19.5952 C   0  0  0  0  0  0  0  0  0  0  0  0
    6.8262    6.5426   19.2634 C   0  0  0  0  0  0  0  0  0  0  0  0
    7.6663    6.0627   20.2627 C   0  0  0  0  0  0  0  0  0  0  0  0
    7.4701    6.4188   21.6043 C   0  0  0  0  0  0  0  0  0  0  0  0
    6.4030    7.2758   21.9229 C   0  0  0  0  0  0  0  0  0  0  0  0
    5.9578    7.7843   23.1358 N   0  0  0  0  0  0  0  0  0  0  0  0
    3.1301   10.1414   23.5386 N   0  0  0  0  0  0  0  0  0  0  0  0
    4.2061    9.4006   23.9777 C   0  0  0  0  0  0  0  0  0  0  0  0
    4.5629    9.4140   25.1521 O   0  0  0  0  0  0  0  0  0  0  0  0
    2.9143   10.1503   22.5781 H   0  0  0  0  0  0  0  0  0  0  0  0
    2.3111   10.9048   24.4505 C   0  0  0  0  0  0  0  0  0  0  0  0
   -1.8455   11.1445   23.2005 C   0  0  0  0  0  0  0  0  0  0  0  0
   -0.8614   11.9125   22.5631 C   0  0  0  0  0  0  0  0  0  0  0  0
    0.4822   11.8263   22.9552 C   0  0  0  0  0  0  0  0  0  0  0  0
    0.8739   10.9630   23.9834 C   0  0  0  0  0  0  0  0  0  0  0  0
   -0.1039   10.1892   24.6154 C   0  0  0  0  0  0  0  0  0  0  0  0
   -1.4438   10.2738   24.2258 C   0  0  0  0  0  0  0  0  0  0  0  0
   -3.4224   11.7894   21.4103 C   0  0  0  0  0  0  0  0  0  0  0  0
   -3.3157   11.2171   22.8189 N   0  0  0  0  0  0  0  0  0  0  0  0
   -3.9141    9.8140   22.8877 C   0  0  0  0  0  0  0  0  0  0  0  0
   -4.1206   12.1079   23.7605 C   0  0  0  0  0  0  0  0  0  0  0  0
    6.9217    6.2642   17.9280 O   0  0  0  0  0  0  0  0  0  0  0  0
    6.2916    5.0700   17.4629 C   0  0  0  0  0  0  0  0  0  0  0  0
    7.3648    4.0323   17.2418 C   0  0  0  0  0  0  0  0  0  0  0  0
    8.3813    3.8430   18.1888 C   0  0  0  0  0  0  0  0  0  0  0  0
    9.3779    2.8893   17.9736 C   0  0  0  0  0  0  0  0  0  0  0  0
    9.3734    2.1215   16.8107 C   0  0  0  0  0  0  0  0  0  0  0  0
    8.3754    2.3103   15.8568 C   0  0  0  0  0  0  0  0  0  0  0  0
    7.3770    3.2622   16.0694 C   0  0  0  0  0  0  0  0  0  0  0  0
    6.5484    7.4443   24.4315 C   0  0  0  0  0  0  0  0  0  0  0  0
    7.9371    8.0194   24.5918 C   0  0  0  0  0  0  0  0  0  0  0  0
    8.3665    9.0631   23.7611 C   0  0  0  0  0  0  0  0  0  0  0  0
    9.6585    9.5744   23.8761 C   0  0  0  0  0  0  0  0  0  0  0  0
   10.5380    9.0465   24.8229 C   0  0  0  0  0  0  0  0  0  0  0  0
   10.1304    8.0102   25.6700 C   0  0  0  0  0  0  0  0  0  0  0  0
    8.8334    7.4968   25.5446 C   0  0  0  0  0  0  0  0  0  0  0  0
   11.0986    7.4635   26.6746 C   0  0  0  0  0  0  0  0  0  0  0  0
   10.6423    6.9372   27.7667 N   0  0  0  0  0  0  0  0  0  0  0  0
   12.4423    7.4941   26.4653 N   0  0  0  0  0  0  0  0  0  0  0  0
    9.6721    6.9083   27.9312 H   0  0  0  0  0  0  0  0  0  0  0  0
   12.8030    7.8910   25.6397 H   0  0  0  0  0  0  0  0  0  0  0  0
   13.0541    7.1193   27.1394 H   0  0  0  0  0  0  0  0  0  0  0  0
 21 22  1  0
 22 23  1  0
 22 24  1  0
 22 15  1  0
 15 16  2  0
 16 17  1  0
 17 18  2  0
 18 14  1  0
 14 10  1  0
 10 11  1  0
 11 12  2  0
 11  1  1  0
  1  2  2  0
  2  3  1  0
  3  4  2  0
  4  5  1  0
  5 25  1  0
 25 26  1  0
 26 27  1  0
 27 28  2  0
 28 29  1  0
 29 30  2  0
 30 31  1  0
 31 32  2  0
  5  6  2  0
  6  7  1  0
  7  8  2  0
  8  9  1  0
  9 33  1  0
 33 34  1  0
 34 35  2  0
 35 36  1  0
 36 37  2  0
 37 38  1  0
 38 40  1  0
 40 41  2  0
 40 42  1  0
 38 39  2  0
 18 19  1  0
 19 20  2  0
 20 15  1  0
  9  1  1  0
 39 34  1  0
  8  3  1  0
 32 27  1  0
 10 13  1  0
 41 43  1  0
 42 44  1  0
 42 45  1  0
M  CHG 1  22   1
M  END
> <minimizedAffinity>
-9.49515

> <CNNscore>
0.6657117009

> <CNNaffinity>
7.5037007332

> <CNN_VS>
4.9953012466

> <CNNaffinity_variance>
0.1160674021

$$$$



 45 49  0  0  0  0  0  0  0  0999 V2000
    3.0141    6.0137   23.6890 C   0  0  0  0  0  0  0  0  0  0  0  0
    1.9266    6.8763   23.6891 C   0  0  0  0  0  0  0  0  0  0  0  0
    2.3424    8.1488   24.1516 C   0  0  0  0  0  0  0  0  0  0  0  0
    1.6732    9.3687   24.3701 C   0  0  0  0  0  0  0  0  0  0  0  0
    2.3724   10.4746   24.8653 C   0  0  0  0  0  0  0  0  0  0  0  0
    3.7322   10.3673   25.1376 C   0  0  0  0  0  0  0  0  0  0  0  0
    4.4189    9.1640   24.9249 C   0  0  0  0  0  0  0  0  0  0  0  0
    3.7036    8.0606   24.4293 C   0  0  0  0  0  0  0  0  0  0  0  0
    4.1023    6.7690   24.1117 N   0  0  0  0  0  0  0  0  0  0  0  0
    3.3272    4.3344   22.0285 N   0  0  0  0  0  0  0  0  0  0  0  0
    3.0496    4.6001   23.3520 C   0  0  0  0  0  0  0  0  0  0  0  0
    2.8380    3.7010   24.1604 O   0  0  0  0  0  0  0  0  0  0  0  0
    3.4306    5.0853   21.4003 H   0  0  0  0  0  0  0  0  0  0  0  0
    3.4702    2.9834   21.5391 C   0  0  0  0  0  0  0  0  0  0  0  0
    6.9171    2.4803   18.9385 C   0  0  0  0  0  0  0  0  0  0  0  0
    5.8111    3.2339   18.5225 C   0  0  0  0  0  0  0  0  0  0  0  0
    4.7039    3.4094   19.3651 C   0  0  0  0  0  0  0  0  0  0  0  0
    4.6824    2.8467   20.6453 C   0  0  0  0  0  0  0  0  0  0  0  0
    5.7877    2.1015   21.0666 C   0  0  0  0  0  0  0  0  0  0  0  0
    6.8922    1.9256   20.2279 C   0  0  0  0  0  0  0  0  0  0  0  0
    9.0336    3.4766   18.1417 C   0  0  0  0  0  0  0  0  0  0  0  0
    8.1318    2.2512   18.0529 N   0  0  0  0  0  0  0  0  0  0  0  0
    8.8616    0.9974   18.5296 C   0  0  0  0  0  0  0  0  0  0  0  0
    7.7563    2.0373   16.5896 C   0  0  0  0  0  0  0  0  0  0  0  0
    1.6026   11.5921   25.0337 O   0  0  0  0  0  0  0  0  0  0  0  0
    0.6818   11.9145   23.9907 C   0  0  0  0  0  0  0  0  0  0  0  0
   -0.5979   12.3947   24.6305 C   0  0  0  0  0  0  0  0  0  0  0  0
   -1.1437   11.7188   25.7310 C   0  0  0  0  0  0  0  0  0  0  0  0
   -2.3338   12.1610   26.3117 C   0  0  0  0  0  0  0  0  0  0  0  0
   -2.9927   13.2757   25.7967 C   0  0  0  0  0  0  0  0  0  0  0  0
   -2.4662   13.9473   24.6951 C   0  0  0  0  0  0  0  0  0  0  0  0
   -1.2759   13.5084   24.1130 C   0  0  0  0  0  0  0  0  0  0  0  0
    5.4849    6.2953   24.1975 C   0  0  0  0  0  0  0  0  0  0  0  0
    6.4662    7.3017   23.6415 C   0  0  0  0  0  0  0  0  0  0  0  0
    6.2373    7.8905   22.3906 C   0  0  0  0  0  0  0  0  0  0  0  0
    7.1558    8.7910   21.8527 C   0  0  0  0  0  0  0  0  0  0  0  0
    8.3161    9.1127   22.5591 C   0  0  0  0  0  0  0  0  0  0  0  0
    8.5633    8.5450   23.8138 C   0  0  0  0  0  0  0  0  0  0  0  0
    7.6398    7.6361   24.3453 C   0  0  0  0  0  0  0  0  0  0  0  0
    9.8190    8.9087   24.5462 C   0  0  0  0  0  0  0  0  0  0  0  0
   10.5307    9.9035   24.1197 N   0  0  0  0  0  0  0  0  0  0  0  0
   10.2252    8.2304   25.6530 N   0  0  0  0  0  0  0  0  0  0  0  0
   10.2485   10.4033   23.3198 H   0  0  0  0  0  0  0  0  0  0  0  0
    9.6940    7.4723   25.9883 H   0  0  0  0  0  0  0  0  0  0  0  0
   11.0503    8.4976   26.1189 H   0  0  0  0  0  0  0  0  0  0  0  0
 21 22  1  0
 22 23  1  0
 22 24  1  0
 22 15  1  0
 15 16  2  0
 16 17  1  0
 17 18  2  0
 18 14  1  0
 14 10  1  0
 10 11  1  0
 11 12  2  0
 11  1  1  0
  1  2  2  0
  2  3  1  0
  3  4  2  0
  4  5  1  0
  5 25  1  0
 25 26  1  0
 26 27  1  0
 27 28  2  0
 28 29  1  0
 29 30  2  0
 30 31  1  0
 31 32  2  0
  5  6  2  0
  6  7  1  0
  7  8  2  0
  8  9  1  0
  9 33  1  0
 33 34  1  0
 34 35  2  0
 35 36  1  0
 36 37  2  0
 37 38  1  0
 38 40  1  0
 40 41  2  0
 40 42  1  0
 38 39  2  0
 18 19  1  0
 19 20  2  0
 20 15  1  0
  9  1  1  0
 39 34  1  0
  8  3  1  0
 32 27  1  0
 10 13  1  0
 41 43  1  0
 42 44  1  0
 42 45  1  0
M  CHG 1  22   1
M  END
> <minimizedAffinity>
-8.55155

> <CNNscore>
0.6637252569

> <CNNaffinity>
7.3296852112

> <CNN_VS>
4.8648972511

> <CNNaffinity_variance>
0.2925543785

$$$$



 45 49  0  0  0  0  0  0  0  0999 V2000
    3.7605    7.0265   23.8482 C   0  0  0  0  0  0  0  0  0  0  0  0
    3.6066    5.6603   23.6574 C   0  0  0  0  0  0  0  0  0  0  0  0
    4.4654    5.2368   22.6137 C   0  0  0  0  0  0  0  0  0  0  0  0
    4.7060    3.9927   21.9989 C   0  0  0  0  0  0  0  0  0  0  0  0
    5.6270    3.8936   20.9505 C   0  0  0  0  0  0  0  0  0  0  0  0
    6.3078    5.0272   20.5192 C   0  0  0  0  0  0  0  0  0  0  0  0
    6.0862    6.2749   21.1185 C   0  0  0  0  0  0  0  0  0  0  0  0
    5.1568    6.3602   22.1690 C   0  0  0  0  0  0  0  0  0  0  0  0
    4.7422    7.4306   22.9502 N   0  0  0  0  0  0  0  0  0  0  0  0
    2.9441    9.2087   24.3452 N   0  0  0  0  0  0  0  0  0  0  0  0
    3.0458    7.8998   24.7645 C   0  0  0  0  0  0  0  0  0  0  0  0
    2.5764    7.5268   25.8356 O   0  0  0  0  0  0  0  0  0  0  0  0
    3.3868    9.4798   23.5087 H   0  0  0  0  0  0  0  0  0  0  0  0
    2.2053   10.1929   25.1006 C   0  0  0  0  0  0  0  0  0  0  0  0
   -0.3276   12.6287   22.5417 C   0  0  0  0  0  0  0  0  0  0  0  0
    0.5697   11.7047   21.9892 C   0  0  0  0  0  0  0  0  0  0  0  0
    1.3777   10.9078   22.8129 C   0  0  0  0  0  0  0  0  0  0  0  0
    1.2985   11.0075   24.2056 C   0  0  0  0  0  0  0  0  0  0  0  0
    0.3983   11.9221   24.7602 C   0  0  0  0  0  0  0  0  0  0  0  0
   -0.4080   12.7173   23.9405 C   0  0  0  0  0  0  0  0  0  0  0  0
   -0.4314   13.9268   20.4414 C   0  0  0  0  0  0  0  0  0  0  0  0
   -1.2114   13.5236   21.6872 N   0  0  0  0  0  0  0  0  0  0  0  0
   -2.4792   12.7574   21.3164 C   0  0  0  0  0  0  0  0  0  0  0  0
   -1.6376   14.7935   22.4178 C   0  0  0  0  0  0  0  0  0  0  0  0
    5.7613    2.6311   20.4429 O   0  0  0  0  0  0  0  0  0  0  0  0
    5.8264    2.5017   19.0221 C   0  0  0  0  0  0  0  0  0  0  0  0
    7.2712    2.2940   18.6385 C   0  0  0  0  0  0  0  0  0  0  0  0
    8.0137    3.3341   18.0617 C   0  0  0  0  0  0  0  0  0  0  0  0
    9.3466    3.1328   17.6986 C   0  0  0  0  0  0  0  0  0  0  0  0
    9.9481    1.8922   17.9011 C   0  0  0  0  0  0  0  0  0  0  0  0
    9.2158    0.8476   18.4616 C   0  0  0  0  0  0  0  0  0  0  0  0
    7.8834    1.0460   18.8268 C   0  0  0  0  0  0  0  0  0  0  0  0
    5.2906    8.7836   22.8412 C   0  0  0  0  0  0  0  0  0  0  0  0
    6.7913    8.8051   23.0215 C   0  0  0  0  0  0  0  0  0  0  0  0
    7.6210    9.2048   21.9653 C   0  0  0  0  0  0  0  0  0  0  0  0
    9.0077    9.1916   22.1097 C   0  0  0  0  0  0  0  0  0  0  0  0
    9.5820    8.7766   23.3124 C   0  0  0  0  0  0  0  0  0  0  0  0
    8.7749    8.3811   24.3848 C   0  0  0  0  0  0  0  0  0  0  0  0
    7.3829    8.3904   24.2308 C   0  0  0  0  0  0  0  0  0  0  0  0
    9.4216    7.9387   25.6622 C   0  0  0  0  0  0  0  0  0  0  0  0
    8.8525    7.0137   26.3682 N   0  0  0  0  0  0  0  0  0  0  0  0
   10.5953    8.4734   26.0940 N   0  0  0  0  0  0  0  0  0  0  0  0
    8.0027    6.6178   26.0676 H   0  0  0  0  0  0  0  0  0  0  0  0
   11.0389    9.1771   25.5674 H   0  0  0  0  0  0  0  0  0  0  0  0
   11.0013    8.1568   26.9331 H   0  0  0  0  0  0  0  0  0  0  0  0
 21 22  1  0
 22 23  1  0
 22 24  1  0
 22 15  1  0
 15 16  2  0
 16 17  1  0
 17 18  2  0
 18 14  1  0
 14 10  1  0
 10 11  1  0
 11 12  2  0
 11  1  1  0
  1  2  2  0
  2  3  1  0
  3  4  2  0
  4  5  1  0
  5 25  1  0
 25 26  1  0
 26 27  1  0
 27 28  2  0
 28 29  1  0
 29 30  2  0
 30 31  1  0
 31 32  2  0
  5  6  2  0
  6  7  1  0
  7  8  2  0
  8  9  1  0
  9 33  1  0
 33 34  1  0
 34 35  2  0
 35 36  1  0
 36 37  2  0
 37 38  1  0
 38 40  1  0
 40 41  2  0
 40 42  1  0
 38 39  2  0
 18 19  1  0
 19 20  2  0
 20 15  1  0
  9  1  1  0
 39 34  1  0
  8  3  1  0
 32 27  1  0
 10 13  1  0
 41 43  1  0
 42 44  1  0
 42 45  1  0
M  CHG 1  22   1
M  END
> <minimizedAffinity>
-8.98115

> <CNNscore>
0.5652314425

> <CNNaffinity>
6.6850147247

> <CNN_VS>
3.7785804272

> <CNNaffinity_variance>
0.0768103153

$$$$



 45 49  0  0  0  0  0  0  0  0999 V2000
    4.7673    8.2672   22.9052 C   0  0  0  0  0  0  0  0  0  0  0  0
    4.4274    8.3856   21.5646 C   0  0  0  0  0  0  0  0  0  0  0  0
    5.3546    7.6534   20.7833 C   0  0  0  0  0  0  0  0  0  0  0  0
    5.5042    7.4418   19.3989 C   0  0  0  0  0  0  0  0  0  0  0  0
    6.5617    6.6627   18.9175 C   0  0  0  0  0  0  0  0  0  0  0  0
    7.4634    6.0938   19.8108 C   0  0  0  0  0  0  0  0  0  0  0  0
    7.3321    6.2887   21.1927 C   0  0  0  0  0  0  0  0  0  0  0  0
    6.2665    7.0753   21.6621 C   0  0  0  0  0  0  0  0  0  0  0  0
    5.8766    7.4299   22.9467 N   0  0  0  0  0  0  0  0  0  0  0  0
    2.8217    8.5417   24.2523 N   0  0  0  0  0  0  0  0  0  0  0  0
    4.1402    8.8928   24.0578 C   0  0  0  0  0  0  0  0  0  0  0  0
    4.7143    9.6830   24.8011 O   0  0  0  0  0  0  0  0  0  0  0  0
    2.3811    7.9522   23.5984 H   0  0  0  0  0  0  0  0  0  0  0  0
    2.0697    9.0160   25.3902 C   0  0  0  0  0  0  0  0  0  0  0  0
   -1.0645   11.8218   24.2942 C   0  0  0  0  0  0  0  0  0  0  0  0
    0.2816   12.1180   24.0402 C   0  0  0  0  0  0  0  0  0  0  0  0
    1.2933   11.2083   24.3800 C   0  0  0  0  0  0  0  0  0  0  0  0
    0.9821    9.9788   24.9692 C   0  0  0  0  0  0  0  0  0  0  0  0
   -0.3603    9.6766   25.2162 C   0  0  0  0  0  0  0  0  0  0  0  0
   -1.3702   10.5822   24.8781 C   0  0  0  0  0  0  0  0  0  0  0  0
   -1.5844   14.1303   23.5816 C   0  0  0  0  0  0  0  0  0  0  0  0
   -2.1926   12.7840   23.9568 N   0  0  0  0  0  0  0  0  0  0  0  0
   -3.0046   12.2074   22.7993 C   0  0  0  0  0  0  0  0  0  0  0  0
   -3.1473   12.9988   25.1274 C   0  0  0  0  0  0  0  0  0  0  0  0
    6.5912    6.5416   17.5559 O   0  0  0  0  0  0  0  0  0  0  0  0
    6.0240    5.3581   16.9927 C   0  0  0  0  0  0  0  0  0  0  0  0
    5.1927    4.6868   18.0585 C   0  0  0  0  0  0  0  0  0  0  0  0
    3.8623    5.0726   18.2752 C   0  0  0  0  0  0  0  0  0  0  0  0
    3.1015    4.4558   19.2701 C   0  0  0  0  0  0  0  0  0  0  0  0
    3.6620    3.4547   20.0611 C   0  0  0  0  0  0  0  0  0  0  0  0
    4.9872    3.0724   19.8631 C   0  0  0  0  0  0  0  0  0  0  0  0
    5.7501    3.6863   18.8685 C   0  0  0  0  0  0  0  0  0  0  0  0
    6.5423    6.9594   24.1627 C   0  0  0  0  0  0  0  0  0  0  0  0
    7.8374    7.6944   24.4226 C   0  0  0  0  0  0  0  0  0  0  0  0
    8.1725    8.8206   23.6589 C   0  0  0  0  0  0  0  0  0  0  0  0
    9.3822    9.4824   23.8657 C   0  0  0  0  0  0  0  0  0  0  0  0
   10.2727    9.0247   24.8384 C   0  0  0  0  0  0  0  0  0  0  0  0
    9.9573    7.9078   25.6199 C   0  0  0  0  0  0  0  0  0  0  0  0
    8.7435    7.2437   25.4024 C   0  0  0  0  0  0  0  0  0  0  0  0
   10.9352    7.4396   26.6543 C   0  0  0  0  0  0  0  0  0  0  0  0
   10.4880    6.9412   27.7631 N   0  0  0  0  0  0  0  0  0  0  0  0
   12.2788    7.5129   26.4556 N   0  0  0  0  0  0  0  0  0  0  0  0
    9.5179    6.8820   27.9204 H   0  0  0  0  0  0  0  0  0  0  0  0
   12.6326    7.8894   25.6176 H   0  0  0  0  0  0  0  0  0  0  0  0
   12.8974    7.1895   27.1498 H   0  0  0  0  0  0  0  0  0  0  0  0
 21 22  1  0
 22 23  1  0
 22 24  1  0
 22 15  1  0
 15 16  2  0
 16 17  1  0
 17 18  2  0
 18 14  1  0
 14 10  1  0
 10 11  1  0
 11 12  2  0
 11  1  1  0
  1  2  2  0
  2  3  1  0
  3  4  2  0
  4  5  1  0
  5 25  1  0
 25 26  1  0
 26 27  1  0
 27 28  2  0
 28 29  1  0
 29 30  2  0
 30 31  1  0
 31 32  2  0
  5  6  2  0
  6  7  1  0
  7  8  2  0
  8  9  1  0
  9 33  1  0
 33 34  1  0
 34 35  2  0
 35 36  1  0
 36 37  2  0
 37 38  1  0
 38 40  1  0
 40 41  2  0
 40 42  1  0
 38 39  2  0
 18 19  1  0
 19 20  2  0
 20 15  1  0
  9  1  1  0
 39 34  1  0
  8  3  1  0
 32 27  1  0
 10 13  1  0
 41 43  1  0
 42 44  1  0
 42 45  1  0
M  CHG 1  22   1
M  END
> <minimizedAffinity>
-7.58562

> <CNNscore>
0.5590774417

> <CNNaffinity>
7.2222523689

> <CNN_VS>
4.0377984047

> <CNNaffinity_variance>
0.2771824896

$$$$



 45 49  0  0  0  0  0  0  0  0999 V2000
    5.1283    7.4784   22.2508 C   0  0  0  0  0  0  0  0  0  0  0  0
    4.1652    8.4035   21.8720 C   0  0  0  0  0  0  0  0  0  0  0  0
    3.7346    9.1210   23.0148 C   0  0  0  0  0  0  0  0  0  0  0  0
    2.7848   10.1404   23.2203 C   0  0  0  0  0  0  0  0  0  0  0  0
    2.5651   10.6473   24.5055 C   0  0  0  0  0  0  0  0  0  0  0  0
    3.2907   10.1442   25.5803 C   0  0  0  0  0  0  0  0  0  0  0  0
    4.2430    9.1317   25.3985 C   0  0  0  0  0  0  0  0  0  0  0  0
    4.4517    8.6304   24.1025 C   0  0  0  0  0  0  0  0  0  0  0  0
    5.3162    7.6584   23.6167 N   0  0  0  0  0  0  0  0  0  0  0  0
    6.7657    7.0051   20.5864 N   0  0  0  0  0  0  0  0  0  0  0  0
    5.8063    6.4885   21.4302 C   0  0  0  0  0  0  0  0  0  0  0  0
    5.5509    5.2883   21.4592 O   0  0  0  0  0  0  0  0  0  0  0  0
    6.8974    7.9801   20.5501 H   0  0  0  0  0  0  0  0  0  0  0  0
    7.5830    6.1538   19.7542 C   0  0  0  0  0  0  0  0  0  0  0  0
    5.6679    5.4286   15.9197 C   0  0  0  0  0  0  0  0  0  0  0  0
    5.3941    6.5951   16.6468 C   0  0  0  0  0  0  0  0  0  0  0  0
    6.0213    6.8379   17.8773 C   0  0  0  0  0  0  0  0  0  0  0  0
    6.9442    5.9276   18.4023 C   0  0  0  0  0  0  0  0  0  0  0  0
    7.2260    4.7672   17.6755 C   0  0  0  0  0  0  0  0  0  0  0  0
    6.6017    4.5235   16.4486 C   0  0  0  0  0  0  0  0  0  0  0  0
    3.7156    5.9314   14.4903 C   0  0  0  0  0  0  0  0  0  0  0  0
    5.0001    5.1170   14.5896 N   0  0  0  0  0  0  0  0  0  0  0  0
    5.9627    5.4709   13.4583 C   0  0  0  0  0  0  0  0  0  0  0  0
    4.6437    3.6404   14.4463 C   0  0  0  0  0  0  0  0  0  0  0  0
    1.6153   11.6292   24.5636 O   0  0  0  0  0  0  0  0  0  0  0  0
    0.3674   11.3700   23.9194 C   0  0  0  0  0  0  0  0  0  0  0  0
   -0.7379   11.7265   24.8832 C   0  0  0  0  0  0  0  0  0  0  0  0
   -1.5446   10.7274   25.4460 C   0  0  0  0  0  0  0  0  0  0  0  0
   -2.5729   11.0641   26.3283 C   0  0  0  0  0  0  0  0  0  0  0  0
   -2.8096   12.3988   26.6516 C   0  0  0  0  0  0  0  0  0  0  0  0
   -2.0224   13.4009   26.0880 C   0  0  0  0  0  0  0  0  0  0  0  0
   -0.9928   13.0675   25.2065 C   0  0  0  0  0  0  0  0  0  0  0  0
    6.2957    6.9489   24.4415 C   0  0  0  0  0  0  0  0  0  0  0  0
    7.6084    7.6929   24.5318 C   0  0  0  0  0  0  0  0  0  0  0  0
    7.8777    8.7532   23.6560 C   0  0  0  0  0  0  0  0  0  0  0  0
    9.1008    9.4207   23.7066 C   0  0  0  0  0  0  0  0  0  0  0  0
   10.0707    9.0346   24.6334 C   0  0  0  0  0  0  0  0  0  0  0  0
    9.8226    7.9848   25.5244 C   0  0  0  0  0  0  0  0  0  0  0  0
    8.5945    7.3142   25.4637 C   0  0  0  0  0  0  0  0  0  0  0  0
   10.8848    7.5925   26.5059 C   0  0  0  0  0  0  0  0  0  0  0  0
   10.5331    7.0833   27.6438 N   0  0  0  0  0  0  0  0  0  0  0  0
   12.2078    7.7456   26.2296 N   0  0  0  0  0  0  0  0  0  0  0  0
    9.5791    6.9667   27.8572 H   0  0  0  0  0  0  0  0  0  0  0  0
   12.4894    8.1312   25.3686 H   0  0  0  0  0  0  0  0  0  0  0  0
   12.8838    7.4708   26.8905 H   0  0  0  0  0  0  0  0  0  0  0  0
 21 22  1  0
 22 23  1  0
 22 24  1  0
 22 15  1  0
 15 16  2  0
 16 17  1  0
 17 18  2  0
 18 14  1  0
 14 10  1  0
 10 11  1  0
 11 12  2  0
 11  1  1  0
  1  2  2  0
  2  3  1  0
  3  4  2  0
  4  5  1  0
  5 25  1  0
 25 26  1  0
 26 27  1  0
 27 28  2  0
 28 29  1  0
 29 30  2  0
 30 31  1  0
 31 32  2  0
  5  6  2  0
  6  7  1  0
  7  8  2  0
  8  9  1  0
  9 33  1  0
 33 34  1  0
 34 35  2  0
 35 36  1  0
 36 37  2  0
 37 38  1  0
 38 40  1  0
 40 41  2  0
 40 42  1  0
 38 39  2  0
 18 19  1  0
 19 20  2  0
 20 15  1  0
  9  1  1  0
 39 34  1  0
  8  3  1  0
 32 27  1  0
 10 13  1  0
 41 43  1  0
 42 44  1  0
 42 45  1  0
M  CHG 1  22   1
M  END
> <minimizedAffinity>
-8.59011

> <CNNscore>
0.5328204632

> <CNNaffinity>
7.1253266335

> <CNN_VS>
3.7965197563

> <CNNaffinity_variance>
0.1715951413

$$$$
