


 28 28  0  0  0  0  0  0  0  0999 V2000
   -1.0919   -3.6392   -4.4353 C   0  0  0  0  0  0  0  0  0  0  0  0
   -2.3864   -3.0710   -3.8771 C   0  0  0  0  0  0  0  0  0  0  0  0
   -1.2096   -3.7459   -5.8915 N   0  0  0  0  0  0  0  0  0  0  0  0
   -2.1608   -3.4601   -6.1236 H   0  0  0  0  0  0  0  0  0  0  0  0
   -0.9443   -5.1871   -6.6923 S   0  0  0  0  0  0  0  0  0  0  0  0
   -0.3638   -6.1289   -5.7621 O   0  0  0  0  0  0  0  0  0  0  0  0
   -0.2943   -4.8445   -7.9380 O   0  0  0  0  0  0  0  0  0  0  0  0
   -5.2144   -6.4960   -7.6547 C   0  0  0  0  0  0  0  0  0  0  0  0
   -4.8561   -6.1719   -6.3439 C   0  0  0  0  0  0  0  0  0  0  0  0
   -3.5478   -5.7727   -6.0516 C   0  0  0  0  0  0  0  0  0  0  0  0
   -2.5979   -5.7061   -7.0746 C   0  0  0  0  0  0  0  0  0  0  0  0
   -2.9484   -6.0135   -8.3895 C   0  0  0  0  0  0  0  0  0  0  0  0
   -4.2562   -6.4129   -8.6712 C   0  0  0  0  0  0  0  0  0  0  0  0
   -6.5343   -7.4979   -9.3605 C   0  0  0  0  0  0  0  0  0  0  0  0
   -6.4521   -6.9012   -8.0723 O   0  0  0  0  0  0  0  0  0  0  0  0
    0.2140   -2.9191   -4.0335 C   0  0  0  0  0  0  0  0  0  0  0  0
    0.3108   -1.8716   -2.8545 C   0  0  0  0  0  0  0  0  0  0  0  0
   -0.3447   -2.4016   -1.5785 C   0  0  0  0  0  0  0  0  0  0  0  0
    1.7974   -1.5657   -2.5753 C   0  0  0  0  0  0  0  0  0  0  0  0
   -0.4050   -0.5715   -3.4006 C   0  0  0  0  0  0  0  0  0  0  0  0
   -0.3649    0.8344   -2.7264 C   0  0  0  0  0  0  0  0  0  0  0  0
   -0.7418    0.7670   -1.2305 C   0  0  0  0  0  0  0  0  0  0  0  0
    1.0290    1.4931   -2.8169 C   0  0  0  0  0  0  0  0  0  0  0  0
   -1.3376    1.8306   -3.4741 C   0  0  0  0  0  0  0  0  0  0  0  0
   -2.0338    3.0565   -2.7964 C   0  0  0  0  0  0  0  0  0  0  0  0
   -3.2484    2.6875   -1.9378 C   0  0  0  0  0  0  0  0  0  0  0  0
   -2.4416    4.1370   -3.8160 C   0  0  0  0  0  0  0  0  0  0  0  0
   -0.9818    3.7048   -1.8597 C   0  0  0  0  0  0  0  0  0  0  0  0
 14 15  1  0
 15  8  1  0
  8  9  2  0
  9 10  1  0
 10 11  2  0
 11  5  1  0
  5  6  2  0
  5  7  2  0
  5  3  1  0
  3  1  1  0
  1  2  1  0
  1 16  1  0
 16 17  1  0
 17 18  1  0
 17 19  1  0
 17 20  1  0
 20 21  1  0
 21 22  1  0
 21 23  1  0
 21 24  1  0
 24 25  1  0
 25 26  1  0
 25 27  1  0
 25 28  1  0
 11 12  1  0
 12 13  2  0
 13  8  1  0
  3  4  1  0
M  END
> <minimizedAffinity>
-7.75088

> <CNNscore>
0.8919890523

> <CNNaffinity>
6.3292527199

> <CNN_VS>
5.6456241608

> <CNNaffinity_variance>
0.4510927200

$$$$



 28 28  0  0  0  0  0  0  0  0999 V2000
   -1.2670   -2.4451   -4.6504 C   0  0  0  0  0  0  0  0  0  0  0  0
   -1.2161   -1.0346   -5.2144 C   0  0  0  0  0  0  0  0  0  0  0  0
   -1.4117   -3.3936   -5.7572 N   0  0  0  0  0  0  0  0  0  0  0  0
   -2.2851   -3.1548   -6.2268 H   0  0  0  0  0  0  0  0  0  0  0  0
   -1.4523   -5.0435   -5.5023 S   0  0  0  0  0  0  0  0  0  0  0  0
   -1.9872   -5.2909   -4.1825 O   0  0  0  0  0  0  0  0  0  0  0  0
   -0.1596   -5.5482   -5.9095 O   0  0  0  0  0  0  0  0  0  0  0  0
   -4.4841   -6.4297   -8.6263 C   0  0  0  0  0  0  0  0  0  0  0  0
   -3.1900   -6.0713   -9.0118 C   0  0  0  0  0  0  0  0  0  0  0  0
   -2.2641   -5.6459   -8.0536 C   0  0  0  0  0  0  0  0  0  0  0  0
   -2.6402   -5.5738   -6.7095 C   0  0  0  0  0  0  0  0  0  0  0  0
   -3.9253   -5.9431   -6.3116 C   0  0  0  0  0  0  0  0  0  0  0  0
   -4.8433   -6.3644   -7.2754 C   0  0  0  0  0  0  0  0  0  0  0  0
   -6.7105   -7.2347   -8.8524 C   0  0  0  0  0  0  0  0  0  0  0  0
   -5.4810   -6.8574   -9.4592 O   0  0  0  0  0  0  0  0  0  0  0  0
   -0.1151   -2.8596   -3.7088 C   0  0  0  0  0  0  0  0  0  0  0  0
   -0.0117   -2.4081   -2.1981 C   0  0  0  0  0  0  0  0  0  0  0  0
   -0.9924   -1.2779   -1.8824 C   0  0  0  0  0  0  0  0  0  0  0  0
   -0.3181   -3.6179   -1.2903 C   0  0  0  0  0  0  0  0  0  0  0  0
    1.4943   -1.9667   -2.0036 C   0  0  0  0  0  0  0  0  0  0  0  0
    1.9753   -0.5313   -1.6282 C   0  0  0  0  0  0  0  0  0  0  0  0
    1.2693    0.5520   -2.4721 C   0  0  0  0  0  0  0  0  0  0  0  0
    1.7194   -0.1923   -0.1434 C   0  0  0  0  0  0  0  0  0  0  0  0
    3.5403   -0.4104   -1.8117 C   0  0  0  0  0  0  0  0  0  0  0  0
    4.5921   -1.0665   -0.8577 C   0  0  0  0  0  0  0  0  0  0  0  0
    4.0162   -2.1624    0.0457 C   0  0  0  0  0  0  0  0  0  0  0  0
    5.3264   -0.0266    0.0099 C   0  0  0  0  0  0  0  0  0  0  0  0
    5.6646   -1.7259   -1.7629 C   0  0  0  0  0  0  0  0  0  0  0  0
 14 15  1  0
 15  8  1  0
  8  9  2  0
  9 10  1  0
 10 11  2  0
 11  5  1  0
  5  6  2  0
  5  7  2  0
  5  3  1  0
  3  1  1  0
  1  2  1  0
  1 16  1  0
 16 17  1  0
 17 18  1  0
 17 19  1  0
 17 20  1  0
 20 21  1  0
 21 22  1  0
 21 23  1  0
 21 24  1  0
 24 25  1  0
 25 26  1  0
 25 27  1  0
 25 28  1  0
 11 12  1  0
 12 13  2  0
 13  8  1  0
  3  4  1  0
M  END
> <minimizedAffinity>
-7.46427

> <CNNscore>
0.8604191542

> <CNNaffinity>
6.5019907951

> <CNN_VS>
5.5944375992

> <CNNaffinity_variance>
0.1290175468

$$$$



 28 28  0  0  0  0  0  0  0  0999 V2000
   -0.8672   -2.5492   -4.2232 C   0  0  0  0  0  0  0  0  0  0  0  0
   -1.7633   -1.3253   -4.3204 C   0  0  0  0  0  0  0  0  0  0  0  0
   -1.0102   -3.3402   -5.4477 N   0  0  0  0  0  0  0  0  0  0  0  0
   -1.9467   -3.1495   -5.8042 H   0  0  0  0  0  0  0  0  0  0  0  0
   -0.8380   -5.0012   -5.4471 S   0  0  0  0  0  0  0  0  0  0  0  0
   -1.1180   -5.4912   -4.1164 O   0  0  0  0  0  0  0  0  0  0  0  0
    0.4142   -5.2788   -6.1155 O   0  0  0  0  0  0  0  0  0  0  0  0
   -4.1897   -6.3314   -8.2524 C   0  0  0  0  0  0  0  0  0  0  0  0
   -2.8903   -6.1647   -8.7376 C   0  0  0  0  0  0  0  0  0  0  0  0
   -1.8662   -5.7561   -7.8770 C   0  0  0  0  0  0  0  0  0  0  0  0
   -2.1488   -5.5081   -6.5309 C   0  0  0  0  0  0  0  0  0  0  0  0
   -3.4397   -5.6853   -6.0326 C   0  0  0  0  0  0  0  0  0  0  0  0
   -4.4559   -6.0914   -6.8996 C   0  0  0  0  0  0  0  0  0  0  0  0
   -6.4810   -6.9682   -8.2697 C   0  0  0  0  0  0  0  0  0  0  0  0
   -5.2768   -6.7217   -8.9847 O   0  0  0  0  0  0  0  0  0  0  0  0
    0.6205   -2.2974   -3.8935 C   0  0  0  0  0  0  0  0  0  0  0  0
    1.1138   -1.4909   -2.6274 C   0  0  0  0  0  0  0  0  0  0  0  0
    2.6398   -1.4810   -2.5287 C   0  0  0  0  0  0  0  0  0  0  0  0
    0.5993   -0.0392   -2.7250 C   0  0  0  0  0  0  0  0  0  0  0  0
    0.4379   -2.2115   -1.3926 C   0  0  0  0  0  0  0  0  0  0  0  0
   -0.1873   -1.4937   -0.1571 C   0  0  0  0  0  0  0  0  0  0  0  0
   -1.4832   -0.7386   -0.5243 C   0  0  0  0  0  0  0  0  0  0  0  0
   -0.5384   -2.4762    0.9815 C   0  0  0  0  0  0  0  0  0  0  0  0
    0.8519   -0.4864    0.4776 C   0  0  0  0  0  0  0  0  0  0  0  0
    2.1102   -0.9206    1.2991 C   0  0  0  0  0  0  0  0  0  0  0  0
    2.5420   -2.3711    1.0579 C   0  0  0  0  0  0  0  0  0  0  0  0
    1.9323   -0.6881    2.8115 C   0  0  0  0  0  0  0  0  0  0  0  0
    3.2769   -0.0062    0.8439 C   0  0  0  0  0  0  0  0  0  0  0  0
 14 15  1  0
 15  8  1  0
  8  9  2  0
  9 10  1  0
 10 11  2  0
 11  5  1  0
  5  6  2  0
  5  7  2  0
  5  3  1  0
  3  1  1  0
  1  2  1  0
  1 16  1  0
 16 17  1  0
 17 18  1  0
 17 19  1  0
 17 20  1  0
 20 21  1  0
 21 22  1  0
 21 23  1  0
 21 24  1  0
 24 25  1  0
 25 26  1  0
 25 27  1  0
 25 28  1  0
 11 12  1  0
 12 13  2  0
 13  8  1  0
  3  4  1  0
M  END
> <minimizedAffinity>
-6.73982

> <CNNscore>
0.8454222679

> <CNNaffinity>
6.3914818764

> <CNN_VS>
5.4035010338

> <CNNaffinity_variance>
0.0646948889

$$$$



 28 28  0  0  0  0  0  0  0  0999 V2000
   -1.3705   -3.5920   -4.6395 C   0  0  0  0  0  0  0  0  0  0  0  0
   -2.7432   -3.5073   -3.9923 C   0  0  0  0  0  0  0  0  0  0  0  0
   -1.5372   -3.7743   -6.0833 N   0  0  0  0  0  0  0  0  0  0  0  0
   -2.5218   -3.5971   -6.2826 H   0  0  0  0  0  0  0  0  0  0  0  0
   -1.1579   -5.2150   -6.8377 S   0  0  0  0  0  0  0  0  0  0  0  0
   -0.6567   -6.1359   -5.8428 O   0  0  0  0  0  0  0  0  0  0  0  0
   -0.3894   -4.8670   -8.0124 O   0  0  0  0  0  0  0  0  0  0  0  0
   -5.2742   -6.6299   -8.2260 C   0  0  0  0  0  0  0  0  0  0  0  0
   -5.0611   -6.2900   -6.8877 C   0  0  0  0  0  0  0  0  0  0  0  0
   -3.7995   -5.8584   -6.4650 C   0  0  0  0  0  0  0  0  0  0  0  0
   -2.7506   -5.7750   -7.3848 C   0  0  0  0  0  0  0  0  0  0  0  0
   -2.9560   -6.0981   -8.7263 C   0  0  0  0  0  0  0  0  0  0  0  0
   -4.2180   -6.5299   -9.1386 C   0  0  0  0  0  0  0  0  0  0  0  0
   -6.4863   -7.2501  -10.1758 C   0  0  0  0  0  0  0  0  0  0  0  0
   -6.4523   -7.0666   -8.7660 O   0  0  0  0  0  0  0  0  0  0  0  0
   -0.3853   -2.4426   -4.3334 C   0  0  0  0  0  0  0  0  0  0  0  0
    0.1584   -2.1156   -2.8863 C   0  0  0  0  0  0  0  0  0  0  0  0
   -0.0499   -3.2909   -1.9303 C   0  0  0  0  0  0  0  0  0  0  0  0
    1.6646   -1.7922   -2.9769 C   0  0  0  0  0  0  0  0  0  0  0  0
   -0.6349   -0.8253   -2.4315 C   0  0  0  0  0  0  0  0  0  0  0  0
   -0.5533   -0.1629   -1.0218 C   0  0  0  0  0  0  0  0  0  0  0  0
    0.6913   -0.6307   -0.2366 C   0  0  0  0  0  0  0  0  0  0  0  0
   -0.4936    1.3785   -1.0962 C   0  0  0  0  0  0  0  0  0  0  0  0
   -1.8574   -0.4821   -0.1882 C   0  0  0  0  0  0  0  0  0  0  0  0
   -2.0342   -0.1526    1.3307 C   0  0  0  0  0  0  0  0  0  0  0  0
   -1.6410   -1.3001    2.2674 C   0  0  0  0  0  0  0  0  0  0  0  0
   -3.4641    0.3111    1.6678 C   0  0  0  0  0  0  0  0  0  0  0  0
   -1.0958    1.0424    1.6397 C   0  0  0  0  0  0  0  0  0  0  0  0
 14 15  1  0
 15  8  1  0
  8  9  2  0
  9 10  1  0
 10 11  2  0
 11  5  1  0
  5  6  2  0
  5  7  2  0
  5  3  1  0
  3  1  1  0
  1  2  1  0
  1 16  1  0
 16 17  1  0
 17 18  1  0
 17 19  1  0
 17 20  1  0
 20 21  1  0
 21 22  1  0
 21 23  1  0
 21 24  1  0
 24 25  1  0
 25 26  1  0
 25 27  1  0
 25 28  1  0
 11 12  1  0
 12 13  2  0
 13  8  1  0
  3  4  1  0
M  END
> <minimizedAffinity>
-6.80599

> <CNNscore>
0.8325362206

> <CNNaffinity>
6.5915760994

> <CNN_VS>
5.4877257347

> <CNNaffinity_variance>
0.0198776107

$$$$



 28 28  0  0  0  0  0  0  0  0999 V2000
   -0.6972   -2.3153   -4.2871 C   0  0  0  0  0  0  0  0  0  0  0  0
   -1.4111   -1.0107   -4.6013 C   0  0  0  0  0  0  0  0  0  0  0  0
   -0.8454   -3.2235   -5.4268 N   0  0  0  0  0  0  0  0  0  0  0  0
   -1.7509   -3.0119   -5.8459 H   0  0  0  0  0  0  0  0  0  0  0  0
   -0.7900   -4.8823   -5.2428 S   0  0  0  0  0  0  0  0  0  0  0  0
   -1.1858   -5.2076   -3.8912 O   0  0  0  0  0  0  0  0  0  0  0  0
    0.4789   -5.3085   -5.7906 O   0  0  0  0  0  0  0  0  0  0  0  0
   -4.0434   -6.2893   -8.1252 C   0  0  0  0  0  0  0  0  0  0  0  0
   -2.7424   -6.0701   -8.5849 C   0  0  0  0  0  0  0  0  0  0  0  0
   -1.7485   -5.6381   -7.7006 C   0  0  0  0  0  0  0  0  0  0  0  0
   -2.0630   -5.4194   -6.3566 C   0  0  0  0  0  0  0  0  0  0  0  0
   -3.3553   -5.6490   -5.8838 C   0  0  0  0  0  0  0  0  0  0  0  0
   -4.3413   -6.0782   -6.7743 C   0  0  0  0  0  0  0  0  0  0  0  0
   -6.3473   -6.8723   -8.2137 C   0  0  0  0  0  0  0  0  0  0  0  0
   -5.1031   -6.7071   -8.8821 O   0  0  0  0  0  0  0  0  0  0  0  0
    0.7793   -2.2114   -3.8461 C   0  0  0  0  0  0  0  0  0  0  0  0
    1.2566   -1.4336   -2.5561 C   0  0  0  0  0  0  0  0  0  0  0  0
    2.7719   -1.5276   -2.3734 C   0  0  0  0  0  0  0  0  0  0  0  0
    0.8491    0.0493   -2.6844 C   0  0  0  0  0  0  0  0  0  0  0  0
    0.4660   -2.0994   -1.3592 C   0  0  0  0  0  0  0  0  0  0  0  0
   -0.2253   -1.3296   -0.1921 C   0  0  0  0  0  0  0  0  0  0  0  0
    0.7552   -0.3837    0.5348 C   0  0  0  0  0  0  0  0  0  0  0  0
   -1.4153   -0.4713   -0.6739 C   0  0  0  0  0  0  0  0  0  0  0  0
   -0.8478   -2.3469    0.8448 C   0  0  0  0  0  0  0  0  0  0  0  0
   -1.9749   -3.3756    0.5009 C   0  0  0  0  0  0  0  0  0  0  0  0
   -2.1224   -3.6611   -0.9976 C   0  0  0  0  0  0  0  0  0  0  0  0
   -3.3427   -2.9615    1.0762 C   0  0  0  0  0  0  0  0  0  0  0  0
   -1.5879   -4.7085    1.1924 C   0  0  0  0  0  0  0  0  0  0  0  0
 14 15  1  0
 15  8  1  0
  8  9  2  0
  9 10  1  0
 10 11  2  0
 11  5  1  0
  5  6  2  0
  5  7  2  0
  5  3  1  0
  3  1  1  0
  1  2  1  0
  1 16  1  0
 16 17  1  0
 17 18  1  0
 17 19  1  0
 17 20  1  0
 20 21  1  0
 21 22  1  0
 21 23  1  0
 21 24  1  0
 24 25  1  0
 25 26  1  0
 25 27  1  0
 25 28  1  0
 11 12  1  0
 12 13  2  0
 13  8  1  0
  3  4  1  0
M  END
> <minimizedAffinity>
-6.92351

> <CNNscore>
0.8140844107

> <CNNaffinity>
6.1169509888

> <CNN_VS>
4.9797143936

> <CNNaffinity_variance>
0.4158600271

$$$$



 28 28  0  0  0  0  0  0  0  0999 V2000
   -0.2691   -3.8862   -3.7769 C   0  0  0  0  0  0  0  0  0  0  0  0
   -0.8367   -4.3860   -2.4585 C   0  0  0  0  0  0  0  0  0  0  0  0
   -1.1766   -4.2712   -4.8604 N   0  0  0  0  0  0  0  0  0  0  0  0
   -2.0427   -4.5738   -4.4147 H   0  0  0  0  0  0  0  0  0  0  0  0
   -0.7762   -5.4602   -5.9626 S   0  0  0  0  0  0  0  0  0  0  0  0
   -0.3233   -6.6252   -5.2367 O   0  0  0  0  0  0  0  0  0  0  0  0
    0.0431   -4.8207   -6.9684 O   0  0  0  0  0  0  0  0  0  0  0  0
   -4.8081   -6.4192   -7.8853 C   0  0  0  0  0  0  0  0  0  0  0  0
   -3.6511   -6.3642   -8.6664 C   0  0  0  0  0  0  0  0  0  0  0  0
   -2.4181   -6.0691   -8.0755 C   0  0  0  0  0  0  0  0  0  0  0  0
   -2.3486   -5.8222   -6.7017 C   0  0  0  0  0  0  0  0  0  0  0  0
   -3.4953   -5.8886   -5.9099 C   0  0  0  0  0  0  0  0  0  0  0  0
   -4.7218   -6.1819   -6.5089 C   0  0  0  0  0  0  0  0  0  0  0  0
   -6.2399   -6.8089   -9.7438 C   0  0  0  0  0  0  0  0  0  0  0  0
   -6.0698   -6.6927   -8.3367 O   0  0  0  0  0  0  0  0  0  0  0  0
    0.0877   -2.3856   -3.8562 C   0  0  0  0  0  0  0  0  0  0  0  0
   -0.9884   -1.2316   -3.9403 C   0  0  0  0  0  0  0  0  0  0  0  0
   -0.7037   -0.2835   -5.1060 C   0  0  0  0  0  0  0  0  0  0  0  0
   -2.3857   -1.8604   -4.1236 C   0  0  0  0  0  0  0  0  0  0  0  0
   -0.9155   -0.4994   -2.5405 C   0  0  0  0  0  0  0  0  0  0  0  0
   -1.3046    0.9876   -2.2758 C   0  0  0  0  0  0  0  0  0  0  0  0
   -1.4935    1.7764   -3.5898 C   0  0  0  0  0  0  0  0  0  0  0  0
   -2.6158    1.1205   -1.4708 C   0  0  0  0  0  0  0  0  0  0  0  0
   -0.2053    1.6936   -1.3867 C   0  0  0  0  0  0  0  0  0  0  0  0
    0.9765    0.9443   -0.6876 C   0  0  0  0  0  0  0  0  0  0  0  0
    1.7301    1.7925    0.3426 C   0  0  0  0  0  0  0  0  0  0  0  0
    1.9818    0.3615   -1.6990 C   0  0  0  0  0  0  0  0  0  0  0  0
    0.3565   -0.2606    0.0662 C   0  0  0  0  0  0  0  0  0  0  0  0
 14 15  1  0
 15  8  1  0
  8  9  2  0
  9 10  1  0
 10 11  2  0
 11  5  1  0
  5  6  2  0
  5  7  2  0
  5  3  1  0
  3  1  1  0
  1  2  1  0
  1 16  1  0
 16 17  1  0
 17 18  1  0
 17 19  1  0
 17 20  1  0
 20 21  1  0
 21 22  1  0
 21 23  1  0
 21 24  1  0
 24 25  1  0
 25 26  1  0
 25 27  1  0
 25 28  1  0
 11 12  1  0
 12 13  2  0
 13  8  1  0
  3  4  1  0
M  END
> <minimizedAffinity>
-6.97196

> <CNNscore>
0.7749136686

> <CNNaffinity>
6.2126522064

> <CNN_VS>
4.8142690659

> <CNNaffinity_variance>
0.5756414533

$$$$



 28 28  0  0  0  0  0  0  0  0999 V2000
   -1.0822   -3.3588   -4.9031 C   0  0  0  0  0  0  0  0  0  0  0  0
   -0.5761   -4.2891   -3.8128 C   0  0  0  0  0  0  0  0  0  0  0  0
   -2.0180   -4.0939   -5.7572 N   0  0  0  0  0  0  0  0  0  0  0  0
   -2.7420   -4.4608   -5.1394 H   0  0  0  0  0  0  0  0  0  0  0  0
   -1.5215   -5.3728   -6.7092 S   0  0  0  0  0  0  0  0  0  0  0  0
   -1.0939   -6.4495   -5.8448 O   0  0  0  0  0  0  0  0  0  0  0  0
   -0.6508   -4.8121   -7.7188 O   0  0  0  0  0  0  0  0  0  0  0  0
   -5.3959   -6.6167   -8.7865 C   0  0  0  0  0  0  0  0  0  0  0  0
   -4.2375   -6.3909   -9.5341 C   0  0  0  0  0  0  0  0  0  0  0  0
   -3.0529   -6.0089   -8.8959 C   0  0  0  0  0  0  0  0  0  0  0  0
   -3.0339   -5.8467   -7.5078 C   0  0  0  0  0  0  0  0  0  0  0  0
   -4.1810   -6.0835   -6.7500 C   0  0  0  0  0  0  0  0  0  0  0  0
   -5.3592   -6.4625   -7.3961 C   0  0  0  0  0  0  0  0  0  0  0  0
   -6.6294   -8.0746  -10.2038 C   0  0  0  0  0  0  0  0  0  0  0  0
   -6.6137   -6.9894   -9.2849 O   0  0  0  0  0  0  0  0  0  0  0  0
   -1.6861   -2.0134   -4.4443 C   0  0  0  0  0  0  0  0  0  0  0  0
   -0.9482   -1.0054   -3.4767 C   0  0  0  0  0  0  0  0  0  0  0  0
   -1.4137   -1.1747   -2.0298 C   0  0  0  0  0  0  0  0  0  0  0  0
    0.5725   -1.2555   -3.5560 C   0  0  0  0  0  0  0  0  0  0  0  0
   -1.2804    0.4309   -4.0490 C   0  0  0  0  0  0  0  0  0  0  0  0
   -0.8945    1.7843   -3.3767 C   0  0  0  0  0  0  0  0  0  0  0  0
    0.5466    2.2125   -3.7293 C   0  0  0  0  0  0  0  0  0  0  0  0
   -1.8297    2.9396   -3.7959 C   0  0  0  0  0  0  0  0  0  0  0  0
   -1.0486    1.6821   -1.8072 C   0  0  0  0  0  0  0  0  0  0  0  0
   -2.2083    2.3425   -0.9914 C   0  0  0  0  0  0  0  0  0  0  0  0
   -2.2161    3.8741   -1.0469 C   0  0  0  0  0  0  0  0  0  0  0  0
   -2.2234    1.8874    0.4804 C   0  0  0  0  0  0  0  0  0  0  0  0
   -3.5353    1.8475   -1.6225 C   0  0  0  0  0  0  0  0  0  0  0  0
 14 15  1  0
 15  8  1  0
  8  9  2  0
  9 10  1  0
 10 11  2  0
 11  5  1  0
  5  6  2  0
  5  7  2  0
  5  3  1  0
  3  1  1  0
  1  2  1  0
  1 16  1  0
 16 17  1  0
 17 18  1  0
 17 19  1  0
 17 20  1  0
 20 21  1  0
 21 22  1  0
 21 23  1  0
 21 24  1  0
 24 25  1  0
 25 26  1  0
 25 27  1  0
 25 28  1  0
 11 12  1  0
 12 13  2  0
 13  8  1  0
  3  4  1  0
M  END
> <minimizedAffinity>
-7.44676

> <CNNscore>
0.7558108568

> <CNNaffinity>
6.1178970337

> <CNN_VS>
4.6239728928

> <CNNaffinity_variance>
0.5070195198

$$$$



 28 28  0  0  0  0  0  0  0  0999 V2000
   -1.1530   -3.1486   -4.8848 C   0  0  0  0  0  0  0  0  0  0  0  0
   -1.3141   -3.7910   -3.5167 C   0  0  0  0  0  0  0  0  0  0  0  0
   -1.9905   -3.8674   -5.8478 N   0  0  0  0  0  0  0  0  0  0  0  0
   -2.8352   -4.1401   -5.3454 H   0  0  0  0  0  0  0  0  0  0  0  0
   -1.4492   -5.2378   -6.6338 S   0  0  0  0  0  0  0  0  0  0  0  0
   -1.0698   -6.2168   -5.6405 O   0  0  0  0  0  0  0  0  0  0  0  0
   -0.5261   -4.7837   -7.6503 O   0  0  0  0  0  0  0  0  0  0  0  0
   -5.2552   -6.6530   -8.7277 C   0  0  0  0  0  0  0  0  0  0  0  0
   -5.2383   -6.4763   -7.3420 C   0  0  0  0  0  0  0  0  0  0  0  0
   -4.0715   -6.0442   -6.7031 C   0  0  0  0  0  0  0  0  0  0  0  0
   -2.9198   -5.7966   -7.4552 C   0  0  0  0  0  0  0  0  0  0  0  0
   -2.9297   -5.9558   -8.8412 C   0  0  0  0  0  0  0  0  0  0  0  0
   -4.0984   -6.3895   -9.4698 C   0  0  0  0  0  0  0  0  0  0  0  0
   -7.2951   -7.8728   -8.8099 C   0  0  0  0  0  0  0  0  0  0  0  0
   -6.3242   -7.0715   -9.4712 O   0  0  0  0  0  0  0  0  0  0  0  0
   -1.3892   -1.6247   -4.9697 C   0  0  0  0  0  0  0  0  0  0  0  0
   -0.7623   -0.5825   -3.9609 C   0  0  0  0  0  0  0  0  0  0  0  0
   -0.6072    0.7964   -4.6037 C   0  0  0  0  0  0  0  0  0  0  0  0
   -1.6773   -0.4687   -2.7234 C   0  0  0  0  0  0  0  0  0  0  0  0
    0.6278   -1.2062   -3.5373 C   0  0  0  0  0  0  0  0  0  0  0  0
    1.4936   -0.7468   -2.3241 C   0  0  0  0  0  0  0  0  0  0  0  0
    1.6812    0.7857   -2.2975 C   0  0  0  0  0  0  0  0  0  0  0  0
    0.8750   -1.1547   -0.9691 C   0  0  0  0  0  0  0  0  0  0  0  0
    2.9067   -1.4537   -2.3581 C   0  0  0  0  0  0  0  0  0  0  0  0
    3.9549   -1.3829   -1.1992 C   0  0  0  0  0  0  0  0  0  0  0  0
    4.1215    0.0152   -0.5939 C   0  0  0  0  0  0  0  0  0  0  0  0
    5.3349   -1.9209   -1.6227 C   0  0  0  0  0  0  0  0  0  0  0  0
    3.4400   -2.3182   -0.0747 C   0  0  0  0  0  0  0  0  0  0  0  0
 14 15  1  0
 15  8  1  0
  8  9  2  0
  9 10  1  0
 10 11  2  0
 11  5  1  0
  5  6  2  0
  5  7  2  0
  5  3  1  0
  3  1  1  0
  1  2  1  0
  1 16  1  0
 16 17  1  0
 17 18  1  0
 17 19  1  0
 17 20  1  0
 20 21  1  0
 21 22  1  0
 21 23  1  0
 21 24  1  0
 24 25  1  0
 25 26  1  0
 25 27  1  0
 25 28  1  0
 11 12  1  0
 12 13  2  0
 13  8  1  0
  3  4  1  0
M  END
> <minimizedAffinity>
-8.04255

> <CNNscore>
0.6518686414

> <CNNaffinity>
6.1867814064

> <CNN_VS>
4.0329689980

> <CNNaffinity_variance>
0.2821005583

$$$$



 28 28  0  0  0  0  0  0  0  0999 V2000
   -0.4872   -1.9370   -4.1922 C   0  0  0  0  0  0  0  0  0  0  0  0
   -1.1878   -0.9642   -5.1267 C   0  0  0  0  0  0  0  0  0  0  0  0
   -0.2132   -3.1789   -4.9190 N   0  0  0  0  0  0  0  0  0  0  0  0
   -0.5694   -3.0418   -5.8649 H   0  0  0  0  0  0  0  0  0  0  0  0
   -0.8094   -4.6506   -4.4020 S   0  0  0  0  0  0  0  0  0  0  0  0
   -1.6881   -4.4204   -3.2777 O   0  0  0  0  0  0  0  0  0  0  0  0
    0.3278   -5.5397   -4.3131 O   0  0  0  0  0  0  0  0  0  0  0  0
   -3.2898   -5.9913   -7.9968 C   0  0  0  0  0  0  0  0  0  0  0  0
   -1.9403   -5.6664   -8.1546 C   0  0  0  0  0  0  0  0  0  0  0  0
   -1.1834   -5.2549   -7.0527 C   0  0  0  0  0  0  0  0  0  0  0  0
   -1.7838   -5.1629   -5.7940 C   0  0  0  0  0  0  0  0  0  0  0  0
   -3.1270   -5.4989   -5.6224 C   0  0  0  0  0  0  0  0  0  0  0  0
   -3.8749   -5.9066   -6.7285 C   0  0  0  0  0  0  0  0  0  0  0  0
   -5.4754   -6.7024   -8.6079 C   0  0  0  0  0  0  0  0  0  0  0  0
   -4.1383   -6.4025   -8.9876 O   0  0  0  0  0  0  0  0  0  0  0  0
    0.7789   -1.4213   -3.4735 C   0  0  0  0  0  0  0  0  0  0  0  0
    0.7904   -0.9036   -1.9807 C   0  0  0  0  0  0  0  0  0  0  0  0
    1.4901    0.4510   -1.8625 C   0  0  0  0  0  0  0  0  0  0  0  0
   -0.6646   -0.7714   -1.4838 C   0  0  0  0  0  0  0  0  0  0  0  0
    1.5308   -2.0344   -1.1596 C   0  0  0  0  0  0  0  0  0  0  0  0
    1.9388   -1.9417    0.3429 C   0  0  0  0  0  0  0  0  0  0  0  0
    3.4707   -1.8621    0.5200 C   0  0  0  0  0  0  0  0  0  0  0  0
    1.3332   -0.7061    1.0440 C   0  0  0  0  0  0  0  0  0  0  0  0
    1.3761   -3.1830    1.1429 C   0  0  0  0  0  0  0  0  0  0  0  0
    1.5294   -3.3782    2.6873 C   0  0  0  0  0  0  0  0  0  0  0  0
    1.8152   -4.8241    3.1075 C   0  0  0  0  0  0  0  0  0  0  0  0
    0.3100   -2.8536    3.4689 C   0  0  0  0  0  0  0  0  0  0  0  0
    2.7421   -2.5178    3.1271 C   0  0  0  0  0  0  0  0  0  0  0  0
 14 15  1  0
 15  8  1  0
  8  9  2  0
  9 10  1  0
 10 11  2  0
 11  5  1  0
  5  6  2  0
  5  7  2  0
  5  3  1  0
  3  1  1  0
  1  2  1  0
  1 16  1  0
 16 17  1  0
 17 18  1  0
 17 19  1  0
 17 20  1  0
 20 21  1  0
 21 22  1  0
 21 23  1  0
 21 24  1  0
 24 25  1  0
 25 26  1  0
 25 27  1  0
 25 28  1  0
 11 12  1  0
 12 13  2  0
 13  8  1  0
  3  4  1  0
M  END
> <minimizedAffinity>
-5.74652

> <CNNscore>
0.6491855383

> <CNNaffinity>
6.0202050209

> <CNN_VS>
3.9082300663

> <CNNaffinity_variance>
0.0743037760

$$$$
