


 20 21  0  0  0  0  0  0  0  0999 V2000
   -0.0904  -30.5398   35.8626 C   0  0  0  0  0  0  0  0  0  0  0  0
    0.7372  -31.5776   35.0685 C   0  0  0  0  0  0  0  0  0  0  0  0
    2.0671  -30.9717   34.5357 C   0  0  0  0  0  0  0  0  0  0  0  0
    2.0992  -29.4311   34.6528 C   0  0  0  0  0  0  0  0  0  0  0  0
    0.8423  -28.8834   34.1224 N   0  0  0  0  0  0  0  0  0  0  0  0
    0.8405  -27.4184   34.0724 C   0  0  0  0  0  0  0  0  0  0  0  0
    0.3676  -26.9645   35.4344 C   0  0  0  0  0  0  0  0  0  0  0  0
   -0.6823  -27.9992   35.8258 C   0  0  0  0  0  0  0  0  0  0  0  0
   -0.2976  -29.2643   35.0057 C   0  0  0  0  0  0  0  0  0  0  0  0
    2.2703  -31.3672   33.1298 N   0  0  0  0  0  0  0  0  0  0  0  0
    1.3962  -32.2252   32.5022 C   0  0  0  0  0  0  0  0  0  0  0  0
    1.8583  -32.6857   31.1461 C   0  0  0  0  0  0  0  0  0  0  0  0
    0.3364  -32.5992   32.9926 O   0  0  0  0  0  0  0  0  0  0  0  0
    3.0425  -31.0123   32.6328 H   0  0  0  0  0  0  0  0  0  0  0  0
   -2.4201  -30.4774   35.3472 C   0  0  0  0  0  0  0  0  0  0  0  0
   -1.4037  -31.0717   36.1441 O   0  0  0  0  0  0  0  0  0  0  0  0
    1.0180  -32.7067   35.9264 O   0  0  0  0  0  0  0  0  0  0  0  0
    2.2190  -32.5574   36.6735 C   0  0  0  0  0  0  0  0  0  0  0  0
   -0.6663  -28.2025   37.2371 O   0  0  0  0  0  0  0  0  0  0  0  0
    0.3864  -27.5036   37.8881 C   0  0  0  0  0  0  0  0  0  0  0  0
 15 16  1  0
  1 16  1  0
  1  2  1  0
  2 17  1  0
 17 18  1  0
  2  3  1  0
  3 10  1  0
 10 11  1  0
 11 12  1  0
 11 13  2  0
  3  4  1  0
  4  5  1  0
  5  6  1  0
  6  7  1  0
  7  8  1  0
  8 19  1  0
 19 20  1  0
  8  9  1  0
  9  1  1  0
  9  5  1  0
 10 14  1  0
M  END
> <minimizedAffinity>
-6.54878

> <CNNscore>
0.9256765842

> <CNNaffinity>
5.8915615082

> <CNN_VS>
5.4536805153

> <CNNaffinity_variance>
0.3338707983

$$$$



 20 21  0  0  0  0  0  0  0  0999 V2000
   11.6148  -26.6480   37.9871 C   0  0  0  0  0  0  0  0  0  0  0  0
   11.2271  -25.4187   37.1319 C   0  0  0  0  0  0  0  0  0  0  0  0
    9.8159  -25.5775   36.4971 C   0  0  0  0  0  0  0  0  0  0  0  0
    9.2800  -27.0225   36.6104 C   0  0  0  0  0  0  0  0  0  0  0  0
   10.3284  -27.9582   36.1787 N   0  0  0  0  0  0  0  0  0  0  0  0
    9.8612  -29.3467   36.1280 C   0  0  0  0  0  0  0  0  0  0  0  0
   10.0607  -29.8952   37.5223 C   0  0  0  0  0  0  0  0  0  0  0  0
   11.3564  -29.2440   37.9946 C   0  0  0  0  0  0  0  0  0  0  0  0
   11.4619  -27.9429   37.1481 C   0  0  0  0  0  0  0  0  0  0  0  0
    9.8553  -25.1721   35.0799 N   0  0  0  0  0  0  0  0  0  0  0  0
    9.4861  -23.9031   34.6959 C   0  0  0  0  0  0  0  0  0  0  0  0
    9.3865  -23.7194   33.2056 C   0  0  0  0  0  0  0  0  0  0  0  0
    9.2464  -22.9943   35.4833 O   0  0  0  0  0  0  0  0  0  0  0  0
   10.1501  -25.8186   34.3985 H   0  0  0  0  0  0  0  0  0  0  0  0
   13.1776  -26.2186   39.7392 C   0  0  0  0  0  0  0  0  0  0  0  0
   13.0050  -26.5601   38.3700 O   0  0  0  0  0  0  0  0  0  0  0  0
   11.2632  -24.2388   37.9662 O   0  0  0  0  0  0  0  0  0  0  0  0
   12.1614  -23.2438   37.4904 C   0  0  0  0  0  0  0  0  0  0  0  0
   11.3030  -29.0120   39.4006 O   0  0  0  0  0  0  0  0  0  0  0  0
   12.2409  -29.7926   40.1296 C   0  0  0  0  0  0  0  0  0  0  0  0
 15 16  1  0
  1 16  1  0
  1  2  1  0
  2 17  1  0
 17 18  1  0
  2  3  1  0
  3 10  1  0
 10 11  1  0
 11 12  1  0
 11 13  2  0
  3  4  1  0
  4  5  1  0
  5  6  1  0
  6  7  1  0
  7  8  1  0
  8 19  1  0
 19 20  1  0
  8  9  1  0
  9  1  1  0
  9  5  1  0
 10 14  1  0
M  END
> <minimizedAffinity>
-3.60338

> <CNNscore>
0.4199160933

> <CNNaffinity>
3.3424541950

> <CNN_VS>
1.4035502672

> <CNNaffinity_variance>
1.2404609919

$$$$



 20 21  0  0  0  0  0  0  0  0999 V2000
   10.7551  -26.9276   38.1741 C   0  0  0  0  0  0  0  0  0  0  0  0
   11.1288  -28.4211   38.3243 C   0  0  0  0  0  0  0  0  0  0  0  0
   10.2493  -29.1329   39.3917 C   0  0  0  0  0  0  0  0  0  0  0  0
    9.4450  -28.1326   40.2522 C   0  0  0  0  0  0  0  0  0  0  0  0
   10.3446  -27.0659   40.7145 N   0  0  0  0  0  0  0  0  0  0  0  0
    9.6936  -26.1423   41.6484 C   0  0  0  0  0  0  0  0  0  0  0  0
    9.0272  -25.0941   40.7871 C   0  0  0  0  0  0  0  0  0  0  0  0
    9.9967  -24.8973   39.6264 C   0  0  0  0  0  0  0  0  0  0  0  0
   10.7910  -26.2336   39.5601 C   0  0  0  0  0  0  0  0  0  0  0  0
   11.0964  -29.9683   40.2628 N   0  0  0  0  0  0  0  0  0  0  0  0
   12.4662  -29.8347   40.2576 C   0  0  0  0  0  0  0  0  0  0  0  0
   13.1876  -30.8955   41.0443 C   0  0  0  0  0  0  0  0  0  0  0  0
   13.0628  -28.9436   39.6632 O   0  0  0  0  0  0  0  0  0  0  0  0
   10.6760  -30.6314   40.8569 H   0  0  0  0  0  0  0  0  0  0  0  0
   12.9624  -26.0322   38.0221 C   0  0  0  0  0  0  0  0  0  0  0  0
   11.7321  -26.2585   37.3465 O   0  0  0  0  0  0  0  0  0  0  0  0
   10.9744  -29.0726   37.0431 O   0  0  0  0  0  0  0  0  0  0  0  0
   10.0983  -30.1923   37.0862 C   0  0  0  0  0  0  0  0  0  0  0  0
    9.2762  -24.5974   38.4329 O   0  0  0  0  0  0  0  0  0  0  0  0
    9.6465  -23.3514   37.8575 C   0  0  0  0  0  0  0  0  0  0  0  0
 15 16  1  0
  1 16  1  0
  1  2  1  0
  2 17  1  0
 17 18  1  0
  2  3  1  0
  3 10  1  0
 10 11  1  0
 11 12  1  0
 11 13  2  0
  3  4  1  0
  4  5  1  0
  5  6  1  0
  6  7  1  0
  7  8  1  0
  8 19  1  0
 19 20  1  0
  8  9  1  0
  9  1  1  0
  9  5  1  0
 10 14  1  0
M  END
> <minimizedAffinity>
-3.61465

> <CNNscore>
0.3604388535

> <CNNaffinity>
3.4270560741

> <CNN_VS>
1.2352441549

> <CNNaffinity_variance>
1.0017042160

$$$$



 20 21  0  0  0  0  0  0  0  0999 V2000
    3.0578  -24.3063   38.7251 C   0  0  0  0  0  0  0  0  0  0  0  0
    4.3382  -24.2239   37.8612 C   0  0  0  0  0  0  0  0  0  0  0  0
    5.2324  -25.4854   38.0304 C   0  0  0  0  0  0  0  0  0  0  0  0
    4.7970  -26.3576   39.2295 C   0  0  0  0  0  0  0  0  0  0  0  0
    4.6077  -25.4962   40.4055 N   0  0  0  0  0  0  0  0  0  0  0  0
    4.3216  -26.2584   41.6245 C   0  0  0  0  0  0  0  0  0  0  0  0
    2.8240  -26.4628   41.6356 C   0  0  0  0  0  0  0  0  0  0  0  0
    2.2687  -25.1646   41.0590 C   0  0  0  0  0  0  0  0  0  0  0  0
    3.4356  -24.5968   40.2006 C   0  0  0  0  0  0  0  0  0  0  0  0
    6.6414  -25.0826   38.1950 N   0  0  0  0  0  0  0  0  0  0  0  0
    7.6167  -25.5554   37.3469 C   0  0  0  0  0  0  0  0  0  0  0  0
    9.0183  -25.2148   37.7758 C   0  0  0  0  0  0  0  0  0  0  0  0
    7.3837  -26.2058   36.3339 O   0  0  0  0  0  0  0  0  0  0  0  0
    6.8879  -24.4664   38.9221 H   0  0  0  0  0  0  0  0  0  0  0  0
    3.1580  -21.9831   39.2628 C   0  0  0  0  0  0  0  0  0  0  0  0
    2.3745  -23.0336   38.7118 O   0  0  0  0  0  0  0  0  0  0  0  0
    3.9577  -24.0708   36.4750 O   0  0  0  0  0  0  0  0  0  0  0  0
    3.9188  -25.3030   35.7656 C   0  0  0  0  0  0  0  0  0  0  0  0
    1.0824  -25.4287   40.3132 O   0  0  0  0  0  0  0  0  0  0  0  0
    1.0281  -26.7552   39.8052 C   0  0  0  0  0  0  0  0  0  0  0  0
 15 16  1  0
  1 16  1  0
  1  2  1  0
  2 17  1  0
 17 18  1  0
  2  3  1  0
  3 10  1  0
 10 11  1  0
 11 12  1  0
 11 13  2  0
  3  4  1  0
  4  5  1  0
  5  6  1  0
  6  7  1  0
  7  8  1  0
  8 19  1  0
 19 20  1  0
  8  9  1  0
  9  1  1  0
  9  5  1  0
 10 14  1  0
M  END
> <minimizedAffinity>
-3.73254

> <CNNscore>
0.3350234628

> <CNNaffinity>
3.4815199375

> <CNN_VS>
1.1663908958

> <CNNaffinity_variance>
0.5552330613

$$$$



 20 21  0  0  0  0  0  0  0  0999 V2000
    5.0845  -21.2694   26.6241 C   0  0  0  0  0  0  0  0  0  0  0  0
    5.7926  -21.6345   27.9500 C   0  0  0  0  0  0  0  0  0  0  0  0
    6.4563  -23.0397   27.8835 C   0  0  0  0  0  0  0  0  0  0  0  0
    5.9948  -23.8497   26.6510 C   0  0  0  0  0  0  0  0  0  0  0  0
    4.5293  -23.7851   26.5558 N   0  0  0  0  0  0  0  0  0  0  0  0
    3.9939  -24.6365   25.4893 C   0  0  0  0  0  0  0  0  0  0  0  0
    4.0302  -23.7919   24.2364 C   0  0  0  0  0  0  0  0  0  0  0  0
    3.6881  -22.3884   24.7257 C   0  0  0  0  0  0  0  0  0  0  0  0
    4.0962  -22.3962   26.2271 C   0  0  0  0  0  0  0  0  0  0  0  0
    6.1563  -23.7944   29.1143 N   0  0  0  0  0  0  0  0  0  0  0  0
    5.1512  -23.3925   29.9642 C   0  0  0  0  0  0  0  0  0  0  0  0
    5.1133  -24.1454   31.2665 C   0  0  0  0  0  0  0  0  0  0  0  0
    4.3552  -22.4967   29.7044 O   0  0  0  0  0  0  0  0  0  0  0  0
    6.6828  -24.5975   29.3313 H   0  0  0  0  0  0  0  0  0  0  0  0
    3.1191  -20.2915   27.5608 C   0  0  0  0  0  0  0  0  0  0  0  0
    4.3002  -20.0693   26.8014 O   0  0  0  0  0  0  0  0  0  0  0  0
    6.7913  -20.6300   28.2385 O   0  0  0  0  0  0  0  0  0  0  0  0
    8.0375  -20.8798   27.6001 C   0  0  0  0  0  0  0  0  0  0  0  0
    4.3820  -21.4163   23.9467 O   0  0  0  0  0  0  0  0  0  0  0  0
    4.1623  -21.5623   22.5499 C   0  0  0  0  0  0  0  0  0  0  0  0
 15 16  1  0
  1 16  1  0
  1  2  1  0
  2 17  1  0
 17 18  1  0
  2  3  1  0
  3 10  1  0
 10 11  1  0
 11 12  1  0
 11 13  2  0
  3  4  1  0
  4  5  1  0
  5  6  1  0
  6  7  1  0
  7  8  1  0
  8 19  1  0
 19 20  1  0
  8  9  1  0
  9  1  1  0
  9  5  1  0
 10 14  1  0
M  END
> <minimizedAffinity>
-3.72758

> <CNNscore>
0.2920148671

> <CNNaffinity>
3.7234256268

> <CNN_VS>
1.0872956514

> <CNNaffinity_variance>
0.3347740471

$$$$



 20 21  0  0  0  0  0  0  0  0999 V2000
    2.2107  -25.3367   37.6642 C   0  0  0  0  0  0  0  0  0  0  0  0
    1.4853  -26.4236   36.8365 C   0  0  0  0  0  0  0  0  0  0  0  0
    0.5652  -27.3092   37.7245 C   0  0  0  0  0  0  0  0  0  0  0  0
    0.8281  -27.1014   39.2331 C   0  0  0  0  0  0  0  0  0  0  0  0
    2.2758  -27.1636   39.4808 N   0  0  0  0  0  0  0  0  0  0  0  0
    2.6083  -27.1081   40.9074 C   0  0  0  0  0  0  0  0  0  0  0  0
    2.6963  -25.6383   41.2487 C   0  0  0  0  0  0  0  0  0  0  0  0
    3.3129  -25.0056   40.0056 C   0  0  0  0  0  0  0  0  0  0  0  0
    2.9550  -25.9916   38.8564 C   0  0  0  0  0  0  0  0  0  0  0  0
    0.7524  -28.7305   37.3790 N   0  0  0  0  0  0  0  0  0  0  0  0
   -0.1168  -29.3724   36.5267 C   0  0  0  0  0  0  0  0  0  0  0  0
    0.0944  -30.8600   36.4435 C   0  0  0  0  0  0  0  0  0  0  0  0
   -0.9966  -28.8013   35.8916 O   0  0  0  0  0  0  0  0  0  0  0  0
    1.5103  -29.2275   37.7637 H   0  0  0  0  0  0  0  0  0  0  0  0
    4.1974  -25.5934   36.3666 C   0  0  0  0  0  0  0  0  0  0  0  0
    3.2135  -24.6887   36.8509 O   0  0  0  0  0  0  0  0  0  0  0  0
    0.7044  -25.7810   35.8035 O   0  0  0  0  0  0  0  0  0  0  0  0
    1.0120  -26.2491   34.4961 C   0  0  0  0  0  0  0  0  0  0  0  0
    2.7936  -23.6909   39.8172 O   0  0  0  0  0  0  0  0  0  0  0  0
    1.8431  -23.3208   40.8071 C   0  0  0  0  0  0  0  0  0  0  0  0
 15 16  1  0
  1 16  1  0
  1  2  1  0
  2 17  1  0
 17 18  1  0
  2  3  1  0
  3 10  1  0
 10 11  1  0
 11 12  1  0
 11 13  2  0
  3  4  1  0
  4  5  1  0
  5  6  1  0
  6  7  1  0
  7  8  1  0
  8 19  1  0
 19 20  1  0
  8  9  1  0
  9  1  1  0
  9  5  1  0
 10 14  1  0
M  END
> <minimizedAffinity>
-4.87283

> <CNNscore>
0.2628371119

> <CNNaffinity>
3.8236358166

> <CNN_VS>
1.0049934387

> <CNNaffinity_variance>
0.8394079208

$$$$



 20 21  0  0  0  0  0  0  0  0999 V2000
    1.7261  -24.1879   39.8727 C   0  0  0  0  0  0  0  0  0  0  0  0
    3.1484  -24.2742   40.4748 C   0  0  0  0  0  0  0  0  0  0  0  0
    4.1804  -24.8172   39.4455 C   0  0  0  0  0  0  0  0  0  0  0  0
    3.5013  -25.4237   38.1968 C   0  0  0  0  0  0  0  0  0  0  0  0
    2.4288  -26.3321   38.6276 N   0  0  0  0  0  0  0  0  0  0  0  0
    1.8164  -27.0546   37.5088 C   0  0  0  0  0  0  0  0  0  0  0  0
    0.7260  -26.1479   36.9859 C   0  0  0  0  0  0  0  0  0  0  0  0
    0.1611  -25.4870   38.2390 C   0  0  0  0  0  0  0  0  0  0  0  0
    1.3261  -25.5583   39.2678 C   0  0  0  0  0  0  0  0  0  0  0  0
    5.0401  -25.8305   40.0847 N   0  0  0  0  0  0  0  0  0  0  0  0
    4.7070  -26.3742   41.3044 C   0  0  0  0  0  0  0  0  0  0  0  0
    5.7864  -27.2319   41.9074 C   0  0  0  0  0  0  0  0  0  0  0  0
    3.6358  -26.1802   41.8685 O   0  0  0  0  0  0  0  0  0  0  0  0
    5.8644  -26.1224   39.6324 H   0  0  0  0  0  0  0  0  0  0  0  0
    0.5722  -24.9890   41.8022 C   0  0  0  0  0  0  0  0  0  0  0  0
    0.7693  -23.8959   40.9148 O   0  0  0  0  0  0  0  0  0  0  0  0
    3.5457  -22.9594   40.9255 O   0  0  0  0  0  0  0  0  0  0  0  0
    3.7092  -22.0287   39.8625 C   0  0  0  0  0  0  0  0  0  0  0  0
   -0.2629  -24.1583   37.9422 O   0  0  0  0  0  0  0  0  0  0  0  0
    0.1485  -23.7171   36.6552 C   0  0  0  0  0  0  0  0  0  0  0  0
 15 16  1  0
  1 16  1  0
  1  2  1  0
  2 17  1  0
 17 18  1  0
  2  3  1  0
  3 10  1  0
 10 11  1  0
 11 12  1  0
 11 13  2  0
  3  4  1  0
  4  5  1  0
  5  6  1  0
  6  7  1  0
  7  8  1  0
  8 19  1  0
 19 20  1  0
  8  9  1  0
  9  1  1  0
  9  5  1  0
 10 14  1  0
M  END
> <minimizedAffinity>
-3.99861

> <CNNscore>
0.2348504812

> <CNNaffinity>
3.3303251266

> <CNN_VS>
0.7821284533

> <CNNaffinity_variance>
0.6467445493

$$$$



 20 21  0  0  0  0  0  0  0  0999 V2000
    6.5362  -22.2431   26.5135 C   0  0  0  0  0  0  0  0  0  0  0  0
    6.3356  -22.1960   28.0466 C   0  0  0  0  0  0  0  0  0  0  0  0
    5.7425  -23.5259   28.5935 C   0  0  0  0  0  0  0  0  0  0  0  0
    5.2131  -24.4407   27.4660 C   0  0  0  0  0  0  0  0  0  0  0  0
    4.3746  -23.6456   26.5572 N   0  0  0  0  0  0  0  0  0  0  0  0
    3.7219  -24.4627   25.5300 C   0  0  0  0  0  0  0  0  0  0  0  0
    4.7153  -24.5607   24.3950 C   0  0  0  0  0  0  0  0  0  0  0  0
    5.3877  -23.1920   24.3719 C   0  0  0  0  0  0  0  0  0  0  0  0
    5.2112  -22.6542   25.8212 C   0  0  0  0  0  0  0  0  0  0  0  0
    4.6569  -23.2354   29.5481 N   0  0  0  0  0  0  0  0  0  0  0  0
    4.0207  -22.0151   29.5469 C   0  0  0  0  0  0  0  0  0  0  0  0
    3.0873  -21.8104   30.7095 C   0  0  0  0  0  0  0  0  0  0  0  0
    4.1937  -21.1559   28.6894 O   0  0  0  0  0  0  0  0  0  0  0  0
    4.3832  -23.9245   30.1958 H   0  0  0  0  0  0  0  0  0  0  0  0
    8.2292  -20.8255   25.6075 C   0  0  0  0  0  0  0  0  0  0  0  0
    6.8733  -20.9269   26.0225 O   0  0  0  0  0  0  0  0  0  0  0  0
    7.6086  -21.9273   28.6765 O   0  0  0  0  0  0  0  0  0  0  0  0
    7.5846  -20.7842   29.5225 C   0  0  0  0  0  0  0  0  0  0  0  0
    6.7494  -23.3228   23.9694 O   0  0  0  0  0  0  0  0  0  0  0  0
    6.9090  -24.1004   22.7903 C   0  0  0  0  0  0  0  0  0  0  0  0
 15 16  1  0
  1 16  1  0
  1  2  1  0
  2 17  1  0
 17 18  1  0
  2  3  1  0
  3 10  1  0
 10 11  1  0
 11 12  1  0
 11 13  2  0
  3  4  1  0
  4  5  1  0
  5  6  1  0
  6  7  1  0
  7  8  1  0
  8 19  1  0
 19 20  1  0
  8  9  1  0
  9  1  1  0
  9  5  1  0
 10 14  1  0
M  END
> <minimizedAffinity>
-3.91448

> <CNNscore>
0.2042718977

> <CNNaffinity>
3.1871325970

> <CNN_VS>
0.6510416269

> <CNNaffinity_variance>
0.8254640102

$$$$



 20 21  0  0  0  0  0  0  0  0999 V2000
    9.7070  -25.8294   37.5708 C   0  0  0  0  0  0  0  0  0  0  0  0
    8.9980  -25.7835   38.9448 C   0  0  0  0  0  0  0  0  0  0  0  0
    9.6595  -26.7487   39.9697 C   0  0  0  0  0  0  0  0  0  0  0  0
   10.6450  -27.7322   39.2990 C   0  0  0  0  0  0  0  0  0  0  0  0
    9.9992  -28.3300   38.1214 N   0  0  0  0  0  0  0  0  0  0  0  0
   10.8158  -29.3762   37.4989 C   0  0  0  0  0  0  0  0  0  0  0  0
   11.7292  -28.6589   36.5315 C   0  0  0  0  0  0  0  0  0  0  0  0
   10.8652  -27.5340   35.9710 C   0  0  0  0  0  0  0  0  0  0  0  0
    9.7892  -27.2941   37.0690 C   0  0  0  0  0  0  0  0  0  0  0  0
    8.6185  -27.5037   40.6913 N   0  0  0  0  0  0  0  0  0  0  0  0
    8.2845  -27.1865   41.9882 C   0  0  0  0  0  0  0  0  0  0  0  0
    7.3595  -28.1773   42.6418 C   0  0  0  0  0  0  0  0  0  0  0  0
    8.7011  -26.1951   42.5774 O   0  0  0  0  0  0  0  0  0  0  0  0
    8.1557  -28.2455   40.2388 H   0  0  0  0  0  0  0  0  0  0  0  0
    7.6375  -25.6455   36.3960 C   0  0  0  0  0  0  0  0  0  0  0  0
    8.9336  -25.0965   36.5953 O   0  0  0  0  0  0  0  0  0  0  0  0
    9.0377  -24.4283   39.4463 O   0  0  0  0  0  0  0  0  0  0  0  0
    7.7789  -23.9715   39.9257 C   0  0  0  0  0  0  0  0  0  0  0  0
   11.6704  -26.3897   35.6959 O   0  0  0  0  0  0  0  0  0  0  0  0
   12.9621  -26.4635   36.2846 C   0  0  0  0  0  0  0  0  0  0  0  0
 15 16  1  0
  1 16  1  0
  1  2  1  0
  2 17  1  0
 17 18  1  0
  2  3  1  0
  3 10  1  0
 10 11  1  0
 11 12  1  0
 11 13  2  0
  3  4  1  0
  4  5  1  0
  5  6  1  0
  6  7  1  0
  7  8  1  0
  8 19  1  0
 19 20  1  0
  8  9  1  0
  9  1  1  0
  9  5  1  0
 10 14  1  0
M  END
> <minimizedAffinity>
-3.62666

> <CNNscore>
0.1980232298

> <CNNaffinity>
3.2259407043

> <CNN_VS>
0.6388111711

> <CNNaffinity_variance>
1.2449945211

$$$$
