


 47 51  0  0  0  0  0  0  0  0999 V2000
   -8.9648   44.5081    1.2926 C   0  0  0  0  0  0  0  0  0  0  0  0
   -9.6571   43.5028    0.5938 C   0  0  0  0  0  0  0  0  0  0  0  0
   -9.0166   42.3115    0.2451 C   0  0  0  0  0  0  0  0  0  0  0  0
   -9.8860   41.0939   -0.6047 Cl  0  0  0  0  0  0  0  0  0  0  0  0
   -7.6806   42.0988    0.5804 C   0  0  0  0  0  0  0  0  0  0  0  0
   -6.9748   43.0880    1.2663 C   0  0  0  0  0  0  0  0  0  0  0  0
   -7.6124   44.2862    1.6214 C   0  0  0  0  0  0  0  0  0  0  0  0
   -6.8122   45.3218    2.3195 C   0  0  0  0  0  0  0  0  0  0  0  0
   -5.9650   45.9627    1.7117 O   0  0  0  0  0  0  0  0  0  0  0  0
   -7.1042   45.4666    3.6526 N   0  0  0  0  0  0  0  0  0  0  0  0
   -7.8371   44.9352    4.0395 H   0  0  0  0  0  0  0  0  0  0  0  0
   -6.3678   46.3781    4.5123 C   0  0  0  0  0  0  0  0  0  0  0  0
   -7.3070   47.2617    5.3392 C   0  0  0  0  0  0  0  0  0  0  0  0
   -8.4851   47.7829    4.7782 C   0  0  0  0  0  0  0  0  0  0  0  0
   -9.3232   48.6282    5.5113 C   0  0  0  0  0  0  0  0  0  0  0  0
   -8.9978   48.9947    6.8162 C   0  0  0  0  0  0  0  0  0  0  0  0
   -7.8164   48.5153    7.3783 C   0  0  0  0  0  0  0  0  0  0  0  0
   -6.9757   47.6686    6.6433 C   0  0  0  0  0  0  0  0  0  0  0  0
   -9.9009   49.8228    7.4217 O   0  0  0  0  0  0  0  0  0  0  0  0
  -11.2687   49.6422    7.0796 C   0  0  0  0  0  0  0  0  0  0  0  0
   -5.3770   45.5474    5.3242 C   0  0  0  0  0  0  0  0  0  0  0  0
   -5.7459   44.3260    5.9143 C   0  0  0  0  0  0  0  0  0  0  0  0
   -4.8220   43.5752    6.6514 C   0  0  0  0  0  0  0  0  0  0  0  0
   -3.5125   44.0305    6.8057 C   0  0  0  0  0  0  0  0  0  0  0  0
   -3.1344   45.2342    6.2077 C   0  0  0  0  0  0  0  0  0  0  0  0
   -4.0528   45.9852    5.4698 C   0  0  0  0  0  0  0  0  0  0  0  0
   -2.5171   43.4013    7.5022 O   0  0  0  0  0  0  0  0  0  0  0  0
   -2.9166   42.4074    8.4373 C   0  0  0  0  0  0  0  0  0  0  0  0
   -9.6885   45.7753    1.7042 C   0  0  0  0  0  0  0  0  0  0  0  0
   -9.9533   46.6470    0.5581 N   0  0  0  0  0  0  0  0  0  0  0  0
   -8.9831   47.7306    0.4138 C   0  0  0  0  0  0  0  0  0  0  0  0
   -6.9078   48.0797   -0.9790 C   0  0  0  0  0  0  0  0  0  0  0  0
   -8.0858   47.4814   -0.7645 C   0  0  0  0  0  0  0  0  0  0  0  0
  -11.3622   47.0617    0.4186 C   0  0  0  0  0  0  0  0  0  0  0  0
  -12.2163   46.3089   -0.5909 C   0  0  0  0  0  0  0  0  0  0  0  0
  -11.6033   45.8429   -1.7857 C   0  0  0  0  0  0  0  0  0  0  0  0
  -12.3156   45.1232   -2.7488 C   0  0  0  0  0  0  0  0  0  0  0  0
  -13.6516   44.8919   -2.5175 C   0  0  0  0  0  0  0  0  0  0  0  0
  -14.2841   45.3537   -1.3876 C   0  0  0  0  0  0  0  0  0  0  0  0
  -13.5950   46.0631   -0.4120 C   0  0  0  0  0  0  0  0  0  0  0  0
  -15.6156   45.0562   -1.4026 O   0  0  0  0  0  0  0  0  0  0  0  0
  -15.7324   44.3294   -2.6400 C   0  0  0  0  0  0  0  0  0  0  0  0
  -14.4905   44.2330   -3.3607 O   0  0  0  0  0  0  0  0  0  0  0  0
  -14.3586   46.6204    0.7128 C   0  0  0  0  0  0  0  0  0  0  0  0
  -14.6339   47.7915    0.8840 O   0  0  0  0  0  0  0  0  0  0  0  0
  -14.7394   45.6596    1.5743 O   0  0  0  0  0  0  0  0  0  0  0  0
  -14.5095   44.7660    1.4111 H   0  0  0  0  0  0  0  0  0  0  0  0
 32 33  2  0
 33 31  1  0
 31 30  1  0
 30 29  1  0
 29  1  1  0
  1  2  2  0
  2  3  1  0
  3  4  1  0
  3  5  2  0
  5  6  1  0
  6  7  2  0
  7  8  1  0
  8  9  2  0
  8 10  1  0
 10 12  1  0
 12 13  1  0
 13 14  2  0
 14 15  1  0
 15 16  2  0
 16 19  1  0
 19 20  1  0
 16 17  1  0
 17 18  2  0
 12 21  1  0
 21 22  2  0
 22 23  1  0
 23 24  2  0
 24 27  1  0
 27 28  1  0
 24 25  1  0
 25 26  2  0
 30 34  1  0
 34 35  1  0
 35 36  2  0
 36 37  1  0
 37 38  2  0
 38 39  1  0
 39 40  2  0
 40 44  1  0
 44 45  2  0
 44 46  1  0
 39 41  1  0
 41 42  1  0
 42 43  1  0
  7  1  1  0
 18 13  1  0
 26 21  1  0
 40 35  1  0
 43 38  1  0
 10 11  1  0
 46 47  1  0
M  END
> <minimizedAffinity>
-7.91569

> <CNNscore>
0.8869445920

> <CNNaffinity>
6.9654674530

> <CNN_VS>
6.1779837608

> <CNNaffinity_variance>
0.5026534200

$$$$



 47 51  0  0  0  0  0  0  0  0999 V2000
   -8.8113   43.7133    0.5425 C   0  0  0  0  0  0  0  0  0  0  0  0
   -9.8023   43.2289   -0.3302 C   0  0  0  0  0  0  0  0  0  0  0  0
   -9.8070   41.8890   -0.7247 C   0  0  0  0  0  0  0  0  0  0  0  0
  -11.0330   41.3185   -1.7885 Cl  0  0  0  0  0  0  0  0  0  0  0  0
   -8.8291   41.0095   -0.2636 C   0  0  0  0  0  0  0  0  0  0  0  0
   -7.8328   41.4735    0.5961 C   0  0  0  0  0  0  0  0  0  0  0  0
   -7.8232   42.8176    0.9981 C   0  0  0  0  0  0  0  0  0  0  0  0
   -6.7251   43.2725    1.8854 C   0  0  0  0  0  0  0  0  0  0  0  0
   -5.6866   42.6296    1.9636 O   0  0  0  0  0  0  0  0  0  0  0  0
   -6.9923   44.4259    2.5793 N   0  0  0  0  0  0  0  0  0  0  0  0
   -7.8411   44.8959    2.4121 H   0  0  0  0  0  0  0  0  0  0  0  0
   -6.0644   44.9771    3.5526 C   0  0  0  0  0  0  0  0  0  0  0  0
   -4.8091   45.5439    2.8822 C   0  0  0  0  0  0  0  0  0  0  0  0
   -3.5643   44.9096    3.0313 C   0  0  0  0  0  0  0  0  0  0  0  0
   -2.4059   45.4464    2.4618 C   0  0  0  0  0  0  0  0  0  0  0  0
   -2.4535   46.6421    1.7469 C   0  0  0  0  0  0  0  0  0  0  0  0
   -3.6729   47.3037    1.6168 C   0  0  0  0  0  0  0  0  0  0  0  0
   -4.8341   46.7662    2.1884 C   0  0  0  0  0  0  0  0  0  0  0  0
   -1.2534   47.0562    1.2408 O   0  0  0  0  0  0  0  0  0  0  0  0
   -0.7844   46.3932    0.0743 C   0  0  0  0  0  0  0  0  0  0  0  0
   -6.8391   45.9662    4.4200 C   0  0  0  0  0  0  0  0  0  0  0  0
   -6.6790   46.0081    5.8160 C   0  0  0  0  0  0  0  0  0  0  0  0
   -7.3944   46.9257    6.5949 C   0  0  0  0  0  0  0  0  0  0  0  0
   -8.2773   47.8205    5.9901 C   0  0  0  0  0  0  0  0  0  0  0  0
   -8.4282   47.7964    4.6022 C   0  0  0  0  0  0  0  0  0  0  0  0
   -7.7146   46.8835    3.8215 C   0  0  0  0  0  0  0  0  0  0  0  0
   -9.0388   48.7591    6.6312 O   0  0  0  0  0  0  0  0  0  0  0  0
   -8.8133   50.1184    6.2799 C   0  0  0  0  0  0  0  0  0  0  0  0
   -8.8486   45.1592    0.9976 C   0  0  0  0  0  0  0  0  0  0  0  0
   -9.5779   46.0079    0.0535 N   0  0  0  0  0  0  0  0  0  0  0  0
   -8.8304   47.1933   -0.3617 C   0  0  0  0  0  0  0  0  0  0  0  0
   -6.4516   47.7039   -1.0320 C   0  0  0  0  0  0  0  0  0  0  0  0
   -7.3886   46.8494   -0.6036 C   0  0  0  0  0  0  0  0  0  0  0  0
  -10.9826   46.2659    0.4231 C   0  0  0  0  0  0  0  0  0  0  0  0
  -12.0556   45.8497   -0.5723 C   0  0  0  0  0  0  0  0  0  0  0  0
  -11.6544   45.4507   -1.8761 C   0  0  0  0  0  0  0  0  0  0  0  0
  -12.5784   45.0320   -2.8372 C   0  0  0  0  0  0  0  0  0  0  0  0
  -13.9096   45.0364   -2.4908 C   0  0  0  0  0  0  0  0  0  0  0  0
  -14.3361   45.4445   -1.2493 C   0  0  0  0  0  0  0  0  0  0  0  0
  -13.4357   45.8559   -0.2747 C   0  0  0  0  0  0  0  0  0  0  0  0
  -15.6969   45.4194   -1.1545 O   0  0  0  0  0  0  0  0  0  0  0  0
  -16.0648   44.9169   -2.4526 C   0  0  0  0  0  0  0  0  0  0  0  0
  -14.9344   44.6842   -3.3122 O   0  0  0  0  0  0  0  0  0  0  0  0
  -13.9703   46.3833    0.9883 C   0  0  0  0  0  0  0  0  0  0  0  0
  -13.7082   47.4608    1.4851 O   0  0  0  0  0  0  0  0  0  0  0  0
  -14.8179   45.5128    1.5665 O   0  0  0  0  0  0  0  0  0  0  0  0
  -14.9973   44.6902    1.1553 H   0  0  0  0  0  0  0  0  0  0  0  0
 32 33  2  0
 33 31  1  0
 31 30  1  0
 30 29  1  0
 29  1  1  0
  1  2  2  0
  2  3  1  0
  3  4  1  0
  3  5  2  0
  5  6  1  0
  6  7  2  0
  7  8  1  0
  8  9  2  0
  8 10  1  0
 10 12  1  0
 12 13  1  0
 13 14  2  0
 14 15  1  0
 15 16  2  0
 16 19  1  0
 19 20  1  0
 16 17  1  0
 17 18  2  0
 12 21  1  0
 21 22  2  0
 22 23  1  0
 23 24  2  0
 24 27  1  0
 27 28  1  0
 24 25  1  0
 25 26  2  0
 30 34  1  0
 34 35  1  0
 35 36  2  0
 36 37  1  0
 37 38  2  0
 38 39  1  0
 39 40  2  0
 40 44  1  0
 44 45  2  0
 44 46  1  0
 39 41  1  0
 41 42  1  0
 42 43  1  0
  7  1  1  0
 18 13  1  0
 26 21  1  0
 40 35  1  0
 43 38  1  0
 10 11  1  0
 46 47  1  0
M  END
> <minimizedAffinity>
-9.09848

> <CNNscore>
0.8452758789

> <CNNaffinity>
6.7836322784

> <CNN_VS>
5.7340407372

> <CNNaffinity_variance>
1.2904733419

$$$$



 47 51  0  0  0  0  0  0  0  0999 V2000
   -9.1490   44.2031    1.0647 C   0  0  0  0  0  0  0  0  0  0  0  0
   -9.8251   43.1471    0.4276 C   0  0  0  0  0  0  0  0  0  0  0  0
   -9.1147   42.0688   -0.1052 C   0  0  0  0  0  0  0  0  0  0  0  0
   -9.9642   40.7859   -0.8750 Cl  0  0  0  0  0  0  0  0  0  0  0  0
   -7.7245   42.0214   -0.0177 C   0  0  0  0  0  0  0  0  0  0  0  0
   -7.0356   43.0639    0.6033 C   0  0  0  0  0  0  0  0  0  0  0  0
   -7.7429   44.1490    1.1424 C   0  0  0  0  0  0  0  0  0  0  0  0
   -6.9654   45.2496    1.7625 C   0  0  0  0  0  0  0  0  0  0  0  0
   -6.8548   46.3265    1.1918 O   0  0  0  0  0  0  0  0  0  0  0  0
   -6.4056   44.9396    2.9765 N   0  0  0  0  0  0  0  0  0  0  0  0
   -6.5917   44.0589    3.3752 H   0  0  0  0  0  0  0  0  0  0  0  0
   -5.5471   45.8677    3.6933 C   0  0  0  0  0  0  0  0  0  0  0  0
   -5.4468   45.5149    5.1806 C   0  0  0  0  0  0  0  0  0  0  0  0
   -4.9652   44.2609    5.5923 C   0  0  0  0  0  0  0  0  0  0  0  0
   -4.9148   43.9138    6.9456 C   0  0  0  0  0  0  0  0  0  0  0  0
   -5.3642   44.7994    7.9238 C   0  0  0  0  0  0  0  0  0  0  0  0
   -5.8769   46.0347    7.5330 C   0  0  0  0  0  0  0  0  0  0  0  0
   -5.9283   46.3825    6.1764 C   0  0  0  0  0  0  0  0  0  0  0  0
   -5.2585   44.3395    9.2064 O   0  0  0  0  0  0  0  0  0  0  0  0
   -5.8797   45.1168   10.2214 C   0  0  0  0  0  0  0  0  0  0  0  0
   -4.2146   45.9312    2.9507 C   0  0  0  0  0  0  0  0  0  0  0  0
   -3.6697   47.1511    2.5136 C   0  0  0  0  0  0  0  0  0  0  0  0
   -2.4437   47.1904    1.8383 C   0  0  0  0  0  0  0  0  0  0  0  0
   -1.7396   46.0112    1.5941 C   0  0  0  0  0  0  0  0  0  0  0  0
   -2.2665   44.7977    2.0409 C   0  0  0  0  0  0  0  0  0  0  0  0
   -3.4885   44.7547    2.7167 C   0  0  0  0  0  0  0  0  0  0  0  0
   -0.5407   45.9082    0.9434 O   0  0  0  0  0  0  0  0  0  0  0  0
   -0.4741   46.4486   -0.3701 C   0  0  0  0  0  0  0  0  0  0  0  0
   -9.9389   45.3426    1.6787 C   0  0  0  0  0  0  0  0  0  0  0  0
  -10.1944   46.4108    0.7106 N   0  0  0  0  0  0  0  0  0  0  0  0
   -9.8011   46.0663   -0.6543 C   0  0  0  0  0  0  0  0  0  0  0  0
  -11.4387   45.1484   -2.3409 C   0  0  0  0  0  0  0  0  0  0  0  0
  -10.9809   46.1499   -1.5799 C   0  0  0  0  0  0  0  0  0  0  0  0
   -9.7664   47.7514    1.1531 C   0  0  0  0  0  0  0  0  0  0  0  0
  -10.0289   48.1259    2.6044 C   0  0  0  0  0  0  0  0  0  0  0  0
   -8.9710   47.9875    3.5434 C   0  0  0  0  0  0  0  0  0  0  0  0
   -9.1274   48.3337    4.8883 C   0  0  0  0  0  0  0  0  0  0  0  0
  -10.3575   48.7992    5.2911 C   0  0  0  0  0  0  0  0  0  0  0  0
  -11.4117   48.9175    4.4167 C   0  0  0  0  0  0  0  0  0  0  0  0
  -11.2775   48.5884    3.0737 C   0  0  0  0  0  0  0  0  0  0  0  0
  -12.5425   49.3421    5.0509 O   0  0  0  0  0  0  0  0  0  0  0  0
  -12.0678   49.5110    6.3996 C   0  0  0  0  0  0  0  0  0  0  0  0
  -10.6831   49.1544    6.5625 O   0  0  0  0  0  0  0  0  0  0  0  0
  -12.4748   48.6340    2.2232 C   0  0  0  0  0  0  0  0  0  0  0  0
  -12.9857   49.6320    1.7547 O   0  0  0  0  0  0  0  0  0  0  0  0
  -12.9722   47.4027    2.0058 O   0  0  0  0  0  0  0  0  0  0  0  0
  -12.5526   46.6546    2.3830 H   0  0  0  0  0  0  0  0  0  0  0  0
 32 33  2  0
 33 31  1  0
 31 30  1  0
 30 29  1  0
 29  1  1  0
  1  2  2  0
  2  3  1  0
  3  4  1  0
  3  5  2  0
  5  6  1  0
  6  7  2  0
  7  8  1  0
  8  9  2  0
  8 10  1  0
 10 12  1  0
 12 13  1  0
 13 14  2  0
 14 15  1  0
 15 16  2  0
 16 19  1  0
 19 20  1  0
 16 17  1  0
 17 18  2  0
 12 21  1  0
 21 22  2  0
 22 23  1  0
 23 24  2  0
 24 27  1  0
 27 28  1  0
 24 25  1  0
 25 26  2  0
 30 34  1  0
 34 35  1  0
 35 36  2  0
 36 37  1  0
 37 38  2  0
 38 39  1  0
 39 40  2  0
 40 44  1  0
 44 45  2  0
 44 46  1  0
 39 41  1  0
 41 42  1  0
 42 43  1  0
  7  1  1  0
 18 13  1  0
 26 21  1  0
 40 35  1  0
 43 38  1  0
 10 11  1  0
 46 47  1  0
M  END
> <minimizedAffinity>
-6.76349

> <CNNscore>
0.8175031543

> <CNNaffinity>
7.0088729858

> <CNN_VS>
5.7297759056

> <CNNaffinity_variance>
0.0962354168

$$$$



 47 51  0  0  0  0  0  0  0  0999 V2000
   -8.6333   44.2759    1.0946 C   0  0  0  0  0  0  0  0  0  0  0  0
   -9.3151   43.3975    0.2333 C   0  0  0  0  0  0  0  0  0  0  0  0
   -8.7837   42.1404   -0.0638 C   0  0  0  0  0  0  0  0  0  0  0  0
   -9.6390   41.0809   -1.1157 Cl  0  0  0  0  0  0  0  0  0  0  0  0
   -7.5682   41.7352    0.4849 C   0  0  0  0  0  0  0  0  0  0  0  0
   -6.8731   42.5962    1.3349 C   0  0  0  0  0  0  0  0  0  0  0  0
   -7.4020   43.8596    1.6393 C   0  0  0  0  0  0  0  0  0  0  0  0
   -6.6109   44.7532    2.5201 C   0  0  0  0  0  0  0  0  0  0  0  0
   -7.1623   45.6434    3.1536 O   0  0  0  0  0  0  0  0  0  0  0  0
   -5.2638   44.4918    2.5370 N   0  0  0  0  0  0  0  0  0  0  0  0
   -4.9222   43.7218    2.0273 H   0  0  0  0  0  0  0  0  0  0  0  0
   -4.3245   45.3134    3.2818 C   0  0  0  0  0  0  0  0  0  0  0  0
   -4.0065   44.7101    4.6535 C   0  0  0  0  0  0  0  0  0  0  0  0
   -2.7594   44.9260    5.2635 C   0  0  0  0  0  0  0  0  0  0  0  0
   -2.4442   44.3404    6.4932 C   0  0  0  0  0  0  0  0  0  0  0  0
   -3.3559   43.5054    7.1372 C   0  0  0  0  0  0  0  0  0  0  0  0
   -4.5849   43.2519    6.5318 C   0  0  0  0  0  0  0  0  0  0  0  0
   -4.9007   43.8382    5.2987 C   0  0  0  0  0  0  0  0  0  0  0  0
   -2.9258   42.9995    8.3318 O   0  0  0  0  0  0  0  0  0  0  0  0
   -3.8969   42.3511    9.1423 C   0  0  0  0  0  0  0  0  0  0  0  0
   -3.1137   45.5586    2.3847 C   0  0  0  0  0  0  0  0  0  0  0  0
   -2.2671   44.5105    1.9834 C   0  0  0  0  0  0  0  0  0  0  0  0
   -1.1639   44.7537    1.1561 C   0  0  0  0  0  0  0  0  0  0  0  0
   -0.8924   46.0478    0.7118 C   0  0  0  0  0  0  0  0  0  0  0  0
   -1.7391   47.0909    1.0922 C   0  0  0  0  0  0  0  0  0  0  0  0
   -2.8420   46.8519    1.9160 C   0  0  0  0  0  0  0  0  0  0  0  0
    0.1504   46.4225   -0.0906 O   0  0  0  0  0  0  0  0  0  0  0  0
    0.0771   46.0426   -1.4588 C   0  0  0  0  0  0  0  0  0  0  0  0
   -9.2472   45.6178    1.4434 C   0  0  0  0  0  0  0  0  0  0  0  0
  -10.2881   46.0041    0.4889 N   0  0  0  0  0  0  0  0  0  0  0  0
  -10.4081   47.4499    0.3115 C   0  0  0  0  0  0  0  0  0  0  0  0
   -8.7222   48.6418   -1.1397 C   0  0  0  0  0  0  0  0  0  0  0  0
   -9.8081   47.8719   -0.9991 C   0  0  0  0  0  0  0  0  0  0  0  0
  -11.5715   45.2985    0.6658 C   0  0  0  0  0  0  0  0  0  0  0  0
  -12.4953   45.2140   -0.5404 C   0  0  0  0  0  0  0  0  0  0  0  0
  -11.9927   44.6455   -1.7422 C   0  0  0  0  0  0  0  0  0  0  0  0
  -12.7871   44.5110   -2.8840 C   0  0  0  0  0  0  0  0  0  0  0  0
  -14.0823   44.9699   -2.8211 C   0  0  0  0  0  0  0  0  0  0  0  0
  -14.5925   45.5525   -1.6852 C   0  0  0  0  0  0  0  0  0  0  0  0
  -13.8250   45.6884   -0.5352 C   0  0  0  0  0  0  0  0  0  0  0  0
  -15.8735   45.9818   -1.8752 O   0  0  0  0  0  0  0  0  0  0  0  0
  -16.1149   45.5694   -3.2333 C   0  0  0  0  0  0  0  0  0  0  0  0
  -14.9758   44.9378   -3.8455 O   0  0  0  0  0  0  0  0  0  0  0  0
  -14.3996   46.4200    0.6022 C   0  0  0  0  0  0  0  0  0  0  0  0
  -14.5100   47.6263    0.6985 O   0  0  0  0  0  0  0  0  0  0  0  0
  -14.8095   45.5815    1.5713 O   0  0  0  0  0  0  0  0  0  0  0  0
  -14.7090   44.6561    1.4637 H   0  0  0  0  0  0  0  0  0  0  0  0
 32 33  2  0
 33 31  1  0
 31 30  1  0
 30 29  1  0
 29  1  1  0
  1  2  2  0
  2  3  1  0
  3  4  1  0
  3  5  2  0
  5  6  1  0
  6  7  2  0
  7  8  1  0
  8  9  2  0
  8 10  1  0
 10 12  1  0
 12 13  1  0
 13 14  2  0
 14 15  1  0
 15 16  2  0
 16 19  1  0
 19 20  1  0
 16 17  1  0
 17 18  2  0
 12 21  1  0
 21 22  2  0
 22 23  1  0
 23 24  2  0
 24 27  1  0
 27 28  1  0
 24 25  1  0
 25 26  2  0
 30 34  1  0
 34 35  1  0
 35 36  2  0
 36 37  1  0
 37 38  2  0
 38 39  1  0
 39 40  2  0
 40 44  1  0
 44 45  2  0
 44 46  1  0
 39 41  1  0
 41 42  1  0
 42 43  1  0
  7  1  1  0
 18 13  1  0
 26 21  1  0
 40 35  1  0
 43 38  1  0
 10 11  1  0
 46 47  1  0
M  END
> <minimizedAffinity>
-8.91706

> <CNNscore>
0.8168314695

> <CNNaffinity>
6.7197546959

> <CNN_VS>
5.4889073372

> <CNNaffinity_variance>
0.5826167464

$$$$



 47 51  0  0  0  0  0  0  0  0999 V2000
   -8.7751   44.2071    1.1748 C   0  0  0  0  0  0  0  0  0  0  0  0
   -9.4941   43.3343    0.3384 C   0  0  0  0  0  0  0  0  0  0  0  0
   -8.9611   42.0933   -0.0178 C   0  0  0  0  0  0  0  0  0  0  0  0
   -9.8620   41.0403   -1.0376 Cl  0  0  0  0  0  0  0  0  0  0  0  0
   -7.7074   41.6992    0.4461 C   0  0  0  0  0  0  0  0  0  0  0  0
   -6.9754   42.5550    1.2700 C   0  0  0  0  0  0  0  0  0  0  0  0
   -7.5056   43.8021    1.6335 C   0  0  0  0  0  0  0  0  0  0  0  0
   -6.6765   44.6917    2.4830 C   0  0  0  0  0  0  0  0  0  0  0  0
   -5.4795   44.8185    2.2618 O   0  0  0  0  0  0  0  0  0  0  0  0
   -7.3614   45.3148    3.4959 N   0  0  0  0  0  0  0  0  0  0  0  0
   -8.3349   45.1840    3.5627 H   0  0  0  0  0  0  0  0  0  0  0  0
   -6.6979   46.1612    4.4733 C   0  0  0  0  0  0  0  0  0  0  0  0
   -5.5635   45.4206    5.1884 C   0  0  0  0  0  0  0  0  0  0  0  0
   -5.7399   44.1047    5.6479 C   0  0  0  0  0  0  0  0  0  0  0  0
   -4.7258   43.4388    6.3427 C   0  0  0  0  0  0  0  0  0  0  0  0
   -3.5164   44.0751    6.6176 C   0  0  0  0  0  0  0  0  0  0  0  0
   -3.3352   45.3918    6.1997 C   0  0  0  0  0  0  0  0  0  0  0  0
   -4.3519   46.0598    5.5039 C   0  0  0  0  0  0  0  0  0  0  0  0
   -2.6100   43.3139    7.3009 O   0  0  0  0  0  0  0  0  0  0  0  0
   -2.5479   43.4975    8.7090 C   0  0  0  0  0  0  0  0  0  0  0  0
   -6.2858   47.4491    3.7643 C   0  0  0  0  0  0  0  0  0  0  0  0
   -7.2211   48.4491    3.4458 C   0  0  0  0  0  0  0  0  0  0  0  0
   -6.8238   49.6260    2.7998 C   0  0  0  0  0  0  0  0  0  0  0  0
   -5.4839   49.8251    2.4668 C   0  0  0  0  0  0  0  0  0  0  0  0
   -4.5466   48.8438    2.7958 C   0  0  0  0  0  0  0  0  0  0  0  0
   -4.9389   47.6689    3.4422 C   0  0  0  0  0  0  0  0  0  0  0  0
   -4.9651   50.9204    1.8322 O   0  0  0  0  0  0  0  0  0  0  0  0
   -3.7132   50.7518    1.1794 C   0  0  0  0  0  0  0  0  0  0  0  0
   -9.3887   45.5302    1.5896 C   0  0  0  0  0  0  0  0  0  0  0  0
   -9.9079   46.2731    0.4397 N   0  0  0  0  0  0  0  0  0  0  0  0
   -9.0611   47.3955    0.0407 C   0  0  0  0  0  0  0  0  0  0  0  0
   -6.6142   47.6568   -0.5190 C   0  0  0  0  0  0  0  0  0  0  0  0
   -7.7172   46.9054   -0.4169 C   0  0  0  0  0  0  0  0  0  0  0  0
  -11.3476   46.5862    0.5142 C   0  0  0  0  0  0  0  0  0  0  0  0
  -12.2485   45.9952   -0.5602 C   0  0  0  0  0  0  0  0  0  0  0  0
  -11.6519   45.5103   -1.7556 C   0  0  0  0  0  0  0  0  0  0  0  0
  -12.4099   44.9319   -2.7772 C   0  0  0  0  0  0  0  0  0  0  0  0
  -13.7725   44.8621   -2.6030 C   0  0  0  0  0  0  0  0  0  0  0  0
  -14.3866   45.3482   -1.4732 C   0  0  0  0  0  0  0  0  0  0  0  0
  -13.6532   45.9187   -0.4404 C   0  0  0  0  0  0  0  0  0  0  0  0
  -15.7431   45.2234   -1.5480 O   0  0  0  0  0  0  0  0  0  0  0  0
  -15.9008   44.5749   -2.8237 C   0  0  0  0  0  0  0  0  0  0  0  0
  -14.6532   44.3545   -3.5062 O   0  0  0  0  0  0  0  0  0  0  0  0
  -14.3850   46.5165    0.6848 C   0  0  0  0  0  0  0  0  0  0  0  0
  -14.6174   47.6986    0.8437 O   0  0  0  0  0  0  0  0  0  0  0  0
  -14.7901   45.5804    1.5623 O   0  0  0  0  0  0  0  0  0  0  0  0
  -14.5934   44.6773    1.4082 H   0  0  0  0  0  0  0  0  0  0  0  0
 32 33  2  0
 33 31  1  0
 31 30  1  0
 30 29  1  0
 29  1  1  0
  1  2  2  0
  2  3  1  0
  3  4  1  0
  3  5  2  0
  5  6  1  0
  6  7  2  0
  7  8  1  0
  8  9  2  0
  8 10  1  0
 10 12  1  0
 12 13  1  0
 13 14  2  0
 14 15  1  0
 15 16  2  0
 16 19  1  0
 19 20  1  0
 16 17  1  0
 17 18  2  0
 12 21  1  0
 21 22  2  0
 22 23  1  0
 23 24  2  0
 24 27  1  0
 27 28  1  0
 24 25  1  0
 25 26  2  0
 30 34  1  0
 34 35  1  0
 35 36  2  0
 36 37  1  0
 37 38  2  0
 38 39  1  0
 39 40  2  0
 40 44  1  0
 44 45  2  0
 44 46  1  0
 39 41  1  0
 41 42  1  0
 42 43  1  0
  7  1  1  0
 18 13  1  0
 26 21  1  0
 40 35  1  0
 43 38  1  0
 10 11  1  0
 46 47  1  0
M  END
> <minimizedAffinity>
-7.81425

> <CNNscore>
0.8162798882

> <CNNaffinity>
6.8751411438

> <CNN_VS>
5.6120395660

> <CNNaffinity_variance>
0.5298444629

$$$$



 47 51  0  0  0  0  0  0  0  0999 V2000
   -8.2628   44.3079    0.2219 C   0  0  0  0  0  0  0  0  0  0  0  0
   -8.9862   43.3875   -0.5578 C   0  0  0  0  0  0  0  0  0  0  0  0
   -8.7876   42.0139   -0.4004 C   0  0  0  0  0  0  0  0  0  0  0  0
   -9.6885   40.9072   -1.3616 Cl  0  0  0  0  0  0  0  0  0  0  0  0
   -7.8678   41.5311    0.5288 C   0  0  0  0  0  0  0  0  0  0  0  0
   -7.1346   42.4290    1.3055 C   0  0  0  0  0  0  0  0  0  0  0  0
   -7.3306   43.8100    1.1542 C   0  0  0  0  0  0  0  0  0  0  0  0
   -6.5040   44.7261    1.9773 C   0  0  0  0  0  0  0  0  0  0  0  0
   -5.8700   44.2973    2.9323 O   0  0  0  0  0  0  0  0  0  0  0  0
   -6.5356   46.0385    1.5774 N   0  0  0  0  0  0  0  0  0  0  0  0
   -7.0402   46.2766    0.7662 H   0  0  0  0  0  0  0  0  0  0  0  0
   -5.8491   47.0887    2.3109 C   0  0  0  0  0  0  0  0  0  0  0  0
   -6.0352   46.9386    3.8240 C   0  0  0  0  0  0  0  0  0  0  0  0
   -4.9348   46.7020    4.6650 C   0  0  0  0  0  0  0  0  0  0  0  0
   -5.1018   46.5171    6.0405 C   0  0  0  0  0  0  0  0  0  0  0  0
   -6.3731   46.5410    6.6118 C   0  0  0  0  0  0  0  0  0  0  0  0
   -7.4800   46.7407    5.7893 C   0  0  0  0  0  0  0  0  0  0  0  0
   -7.3128   46.9251    4.4102 C   0  0  0  0  0  0  0  0  0  0  0  0
   -6.3979   46.3493    7.9647 O   0  0  0  0  0  0  0  0  0  0  0  0
   -5.7292   47.3164    8.7634 C   0  0  0  0  0  0  0  0  0  0  0  0
   -4.3986   47.1114    1.8351 C   0  0  0  0  0  0  0  0  0  0  0  0
   -3.9504   48.0346    0.8744 C   0  0  0  0  0  0  0  0  0  0  0  0
   -2.6150   48.0438    0.4537 C   0  0  0  0  0  0  0  0  0  0  0  0
   -1.7043   47.1339    0.9910 C   0  0  0  0  0  0  0  0  0  0  0  0
   -2.1385   46.2256    1.9586 C   0  0  0  0  0  0  0  0  0  0  0  0
   -3.4698   46.2146    2.3823 C   0  0  0  0  0  0  0  0  0  0  0  0
   -0.3795   47.0315    0.6653 O   0  0  0  0  0  0  0  0  0  0  0  0
   -0.0608   46.2854   -0.5024 C   0  0  0  0  0  0  0  0  0  0  0  0
   -8.5249   45.7938    0.0712 C   0  0  0  0  0  0  0  0  0  0  0  0
   -9.8279   46.1746    0.6196 N   0  0  0  0  0  0  0  0  0  0  0  0
   -9.7376   46.9026    1.8837 C   0  0  0  0  0  0  0  0  0  0  0  0
  -10.2666   49.3602    1.6611 C   0  0  0  0  0  0  0  0  0  0  0  0
   -9.3953   48.3443    1.6385 C   0  0  0  0  0  0  0  0  0  0  0  0
  -10.8364   45.0981    0.6017 C   0  0  0  0  0  0  0  0  0  0  0  0
  -11.8997   45.1538   -0.4854 C   0  0  0  0  0  0  0  0  0  0  0  0
  -11.5462   44.7526   -1.8023 C   0  0  0  0  0  0  0  0  0  0  0  0
  -12.4732   44.7527   -2.8481 C   0  0  0  0  0  0  0  0  0  0  0  0
  -13.7515   45.1783   -2.5710 C   0  0  0  0  0  0  0  0  0  0  0  0
  -14.1205   45.6018   -1.3163 C   0  0  0  0  0  0  0  0  0  0  0  0
  -13.2193   45.6017   -0.2591 C   0  0  0  0  0  0  0  0  0  0  0  0
  -15.4155   46.0308   -1.2938 O   0  0  0  0  0  0  0  0  0  0  0  0
  -15.8196   45.7922   -2.6549 C   0  0  0  0  0  0  0  0  0  0  0  0
  -14.7628   45.2632   -3.4761 O   0  0  0  0  0  0  0  0  0  0  0  0
  -13.6522   46.1718    1.0241 C   0  0  0  0  0  0  0  0  0  0  0  0
  -13.1415   47.1110    1.6017 O   0  0  0  0  0  0  0  0  0  0  0  0
  -14.7198   45.5189    1.5185 O   0  0  0  0  0  0  0  0  0  0  0  0
  -15.0883   44.7984    1.0463 H   0  0  0  0  0  0  0  0  0  0  0  0
 32 33  2  0
 33 31  1  0
 31 30  1  0
 30 29  1  0
 29  1  1  0
  1  2  2  0
  2  3  1  0
  3  4  1  0
  3  5  2  0
  5  6  1  0
  6  7  2  0
  7  8  1  0
  8  9  2  0
  8 10  1  0
 10 12  1  0
 12 13  1  0
 13 14  2  0
 14 15  1  0
 15 16  2  0
 16 19  1  0
 19 20  1  0
 16 17  1  0
 17 18  2  0
 12 21  1  0
 21 22  2  0
 22 23  1  0
 23 24  2  0
 24 27  1  0
 27 28  1  0
 24 25  1  0
 25 26  2  0
 30 34  1  0
 34 35  1  0
 35 36  2  0
 36 37  1  0
 37 38  2  0
 38 39  1  0
 39 40  2  0
 40 44  1  0
 44 45  2  0
 44 46  1  0
 39 41  1  0
 41 42  1  0
 42 43  1  0
  7  1  1  0
 18 13  1  0
 26 21  1  0
 40 35  1  0
 43 38  1  0
 10 11  1  0
 46 47  1  0
M  END
> <minimizedAffinity>
-8.01161

> <CNNscore>
0.7722783089

> <CNNaffinity>
6.8816871643

> <CNN_VS>
5.3145775795

> <CNNaffinity_variance>
0.3478052616

$$$$



 47 51  0  0  0  0  0  0  0  0999 V2000
   -8.4304   48.7998    0.5134 C   0  0  0  0  0  0  0  0  0  0  0  0
   -8.3174   50.1039   -0.0011 C   0  0  0  0  0  0  0  0  0  0  0  0
   -7.2809   50.4337   -0.8773 C   0  0  0  0  0  0  0  0  0  0  0  0
   -7.1667   52.0343   -1.4980 Cl  0  0  0  0  0  0  0  0  0  0  0  0
   -6.3391   49.4781   -1.2550 C   0  0  0  0  0  0  0  0  0  0  0  0
   -6.4298   48.1811   -0.7484 C   0  0  0  0  0  0  0  0  0  0  0  0
   -7.4696   47.8425    0.1305 C   0  0  0  0  0  0  0  0  0  0  0  0
   -7.5052   46.4610    0.6695 C   0  0  0  0  0  0  0  0  0  0  0  0
   -7.3895   45.5012   -0.0810 O   0  0  0  0  0  0  0  0  0  0  0  0
   -7.6830   46.3826    2.0280 N   0  0  0  0  0  0  0  0  0  0  0  0
   -7.7190   47.2153    2.5520 H   0  0  0  0  0  0  0  0  0  0  0  0
   -7.8200   45.1115    2.7192 C   0  0  0  0  0  0  0  0  0  0  0  0
   -8.1999   43.9809    1.7580 C   0  0  0  0  0  0  0  0  0  0  0  0
   -9.5029   43.8818    1.2418 C   0  0  0  0  0  0  0  0  0  0  0  0
   -9.8701   42.8267    0.4015 C   0  0  0  0  0  0  0  0  0  0  0  0
   -8.9540   41.8293    0.0710 C   0  0  0  0  0  0  0  0  0  0  0  0
   -7.6666   41.8918    0.6003 C   0  0  0  0  0  0  0  0  0  0  0  0
   -7.2985   42.9491    1.4433 C   0  0  0  0  0  0  0  0  0  0  0  0
   -9.4384   40.8575   -0.7589 O   0  0  0  0  0  0  0  0  0  0  0  0
  -10.3374   41.2724   -1.7787 C   0  0  0  0  0  0  0  0  0  0  0  0
   -6.5397   44.8805    3.5183 C   0  0  0  0  0  0  0  0  0  0  0  0
   -6.5457   44.1808    4.7375 C   0  0  0  0  0  0  0  0  0  0  0  0
   -5.3607   43.9742    5.4541 C   0  0  0  0  0  0  0  0  0  0  0  0
   -4.1493   44.4588    4.9605 C   0  0  0  0  0  0  0  0  0  0  0  0
   -4.1333   45.1395    3.7415 C   0  0  0  0  0  0  0  0  0  0  0  0
   -5.3134   45.3459    3.0226 C   0  0  0  0  0  0  0  0  0  0  0  0
   -2.9261   44.3324    5.5602 O   0  0  0  0  0  0  0  0  0  0  0  0
   -1.8674   45.1216    5.0328 C   0  0  0  0  0  0  0  0  0  0  0  0
   -9.5886   48.4470    1.4262 C   0  0  0  0  0  0  0  0  0  0  0  0
  -10.8141   48.1792    0.6711 N   0  0  0  0  0  0  0  0  0  0  0  0
  -11.7896   49.2654    0.7395 C   0  0  0  0  0  0  0  0  0  0  0  0
  -12.7752   50.6759    2.5856 C   0  0  0  0  0  0  0  0  0  0  0  0
  -12.1277   49.5812    2.1684 C   0  0  0  0  0  0  0  0  0  0  0  0
  -11.3788   46.8326    0.8808 C   0  0  0  0  0  0  0  0  0  0  0  0
  -12.1667   46.2180   -0.2668 C   0  0  0  0  0  0  0  0  0  0  0  0
  -11.4721   45.8663   -1.4559 C   0  0  0  0  0  0  0  0  0  0  0  0
  -12.1216   45.2755   -2.5431 C   0  0  0  0  0  0  0  0  0  0  0  0
  -13.4760   45.0592   -2.4399 C   0  0  0  0  0  0  0  0  0  0  0  0
  -14.1852   45.4142   -1.3171 C   0  0  0  0  0  0  0  0  0  0  0  0
  -13.5599   45.9941   -0.2203 C   0  0  0  0  0  0  0  0  0  0  0  0
  -15.5172   45.1586   -1.4649 O   0  0  0  0  0  0  0  0  0  0  0  0
  -15.5519   44.5733   -2.7798 C   0  0  0  0  0  0  0  0  0  0  0  0
  -14.2598   44.5196   -3.4112 O   0  0  0  0  0  0  0  0  0  0  0  0
  -14.3974   46.4485    0.8982 C   0  0  0  0  0  0  0  0  0  0  0  0
  -14.7140   47.5968    1.1383 O   0  0  0  0  0  0  0  0  0  0  0  0
  -14.7965   45.4178    1.6657 O   0  0  0  0  0  0  0  0  0  0  0  0
  -14.5335   44.5445    1.4510 H   0  0  0  0  0  0  0  0  0  0  0  0
 32 33  2  0
 33 31  1  0
 31 30  1  0
 30 29  1  0
 29  1  1  0
  1  2  2  0
  2  3  1  0
  3  4  1  0
  3  5  2  0
  5  6  1  0
  6  7  2  0
  7  8  1  0
  8  9  2  0
  8 10  1  0
 10 12  1  0
 12 13  1  0
 13 14  2  0
 14 15  1  0
 15 16  2  0
 16 19  1  0
 19 20  1  0
 16 17  1  0
 17 18  2  0
 12 21  1  0
 21 22  2  0
 22 23  1  0
 23 24  2  0
 24 27  1  0
 27 28  1  0
 24 25  1  0
 25 26  2  0
 30 34  1  0
 34 35  1  0
 35 36  2  0
 36 37  1  0
 37 38  2  0
 38 39  1  0
 39 40  2  0
 40 44  1  0
 44 45  2  0
 44 46  1  0
 39 41  1  0
 41 42  1  0
 42 43  1  0
  7  1  1  0
 18 13  1  0
 26 21  1  0
 40 35  1  0
 43 38  1  0
 10 11  1  0
 46 47  1  0
M  END
> <minimizedAffinity>
-8.19128

> <CNNscore>
0.6413528919

> <CNNaffinity>
6.2349982262

> <CNN_VS>
3.9988341331

> <CNNaffinity_variance>
0.9232318401

$$$$



 47 51  0  0  0  0  0  0  0  0999 V2000
   -9.2736   43.8956    0.6592 C   0  0  0  0  0  0  0  0  0  0  0  0
   -9.8391   42.9822   -0.2486 C   0  0  0  0  0  0  0  0  0  0  0  0
   -9.1757   41.7948   -0.5663 C   0  0  0  0  0  0  0  0  0  0  0  0
   -9.8901   40.6902   -1.6753 Cl  0  0  0  0  0  0  0  0  0  0  0  0
   -7.9413   41.4954    0.0075 C   0  0  0  0  0  0  0  0  0  0  0  0
   -7.3604   42.3932    0.9039 C   0  0  0  0  0  0  0  0  0  0  0  0
   -8.0222   43.5868    1.2292 C   0  0  0  0  0  0  0  0  0  0  0  0
   -7.3501   44.5256    2.1603 C   0  0  0  0  0  0  0  0  0  0  0  0
   -7.9916   45.0983    3.0312 O   0  0  0  0  0  0  0  0  0  0  0  0
   -6.0041   44.6803    1.9423 N   0  0  0  0  0  0  0  0  0  0  0  0
   -5.5698   44.1384    1.2444 H   0  0  0  0  0  0  0  0  0  0  0  0
   -5.1981   45.6172    2.7070 C   0  0  0  0  0  0  0  0  0  0  0  0
   -5.8977   46.9709    2.8642 C   0  0  0  0  0  0  0  0  0  0  0  0
   -5.9141   47.8998    1.8101 C   0  0  0  0  0  0  0  0  0  0  0  0
   -6.5095   49.1555    1.9614 C   0  0  0  0  0  0  0  0  0  0  0  0
   -7.0850   49.5277    3.1753 C   0  0  0  0  0  0  0  0  0  0  0  0
   -7.0488   48.6332    4.2429 C   0  0  0  0  0  0  0  0  0  0  0  0
   -6.4513   47.3746    4.0917 C   0  0  0  0  0  0  0  0  0  0  0  0
   -7.6340   50.7792    3.1901 O   0  0  0  0  0  0  0  0  0  0  0  0
   -8.4017   51.1309    4.3335 C   0  0  0  0  0  0  0  0  0  0  0  0
   -4.8105   44.9319    4.0150 C   0  0  0  0  0  0  0  0  0  0  0  0
   -3.7547   45.4059    4.8131 C   0  0  0  0  0  0  0  0  0  0  0  0
   -3.4167   44.7673    6.0124 C   0  0  0  0  0  0  0  0  0  0  0  0
   -4.1326   43.6476    6.4364 C   0  0  0  0  0  0  0  0  0  0  0  0
   -5.1937   43.1817    5.6576 C   0  0  0  0  0  0  0  0  0  0  0  0
   -5.5352   43.8175    4.4613 C   0  0  0  0  0  0  0  0  0  0  0  0
   -3.9038   42.9294    7.5782 O   0  0  0  0  0  0  0  0  0  0  0  0
   -4.3659   43.4966    8.7974 C   0  0  0  0  0  0  0  0  0  0  0  0
  -10.0291   45.1573    1.0286 C   0  0  0  0  0  0  0  0  0  0  0  0
   -9.4649   46.3399    0.3753 N   0  0  0  0  0  0  0  0  0  0  0  0
   -9.3928   47.5094    1.2490 C   0  0  0  0  0  0  0  0  0  0  0  0
  -10.5993   48.2024    3.3544 C   0  0  0  0  0  0  0  0  0  0  0  0
  -10.1322   47.2558    2.5314 C   0  0  0  0  0  0  0  0  0  0  0  0
  -10.0059   46.6111   -0.9701 C   0  0  0  0  0  0  0  0  0  0  0  0
  -11.3033   45.9159   -1.3556 C   0  0  0  0  0  0  0  0  0  0  0  0
  -11.2304   44.6899   -2.0709 C   0  0  0  0  0  0  0  0  0  0  0  0
  -12.3767   43.9802   -2.4386 C   0  0  0  0  0  0  0  0  0  0  0  0
  -13.5978   44.5178   -2.1042 C   0  0  0  0  0  0  0  0  0  0  0  0
  -13.7068   45.7161   -1.4394 C   0  0  0  0  0  0  0  0  0  0  0  0
  -12.5816   46.4347   -1.0552 C   0  0  0  0  0  0  0  0  0  0  0  0
  -15.0114   46.0767   -1.2684 O   0  0  0  0  0  0  0  0  0  0  0  0
  -15.6973   44.9586   -1.8620 C   0  0  0  0  0  0  0  0  0  0  0  0
  -14.8049   43.9703   -2.4077 O   0  0  0  0  0  0  0  0  0  0  0  0
  -12.7754   47.7587   -0.4483 C   0  0  0  0  0  0  0  0  0  0  0  0
  -11.9212   48.4335    0.0917 O   0  0  0  0  0  0  0  0  0  0  0  0
  -14.0529   48.1676   -0.5548 O   0  0  0  0  0  0  0  0  0  0  0  0
  -14.6859   47.6214   -0.9778 H   0  0  0  0  0  0  0  0  0  0  0  0
 32 33  2  0
 33 31  1  0
 31 30  1  0
 30 29  1  0
 29  1  1  0
  1  2  2  0
  2  3  1  0
  3  4  1  0
  3  5  2  0
  5  6  1  0
  6  7  2  0
  7  8  1  0
  8  9  2  0
  8 10  1  0
 10 12  1  0
 12 13  1  0
 13 14  2  0
 14 15  1  0
 15 16  2  0
 16 19  1  0
 19 20  1  0
 16 17  1  0
 17 18  2  0
 12 21  1  0
 21 22  2  0
 22 23  1  0
 23 24  2  0
 24 27  1  0
 27 28  1  0
 24 25  1  0
 25 26  2  0
 30 34  1  0
 34 35  1  0
 35 36  2  0
 36 37  1  0
 37 38  2  0
 38 39  1  0
 39 40  2  0
 40 44  1  0
 44 45  2  0
 44 46  1  0
 39 41  1  0
 41 42  1  0
 42 43  1  0
  7  1  1  0
 18 13  1  0
 26 21  1  0
 40 35  1  0
 43 38  1  0
 10 11  1  0
 46 47  1  0
M  END
> <minimizedAffinity>
-7.22507

> <CNNscore>
0.6404998302

> <CNNaffinity>
6.5825943947

> <CNN_VS>
4.2161507607

> <CNNaffinity_variance>
0.2370434254

$$$$



 47 51  0  0  0  0  0  0  0  0999 V2000
  -10.4121   47.9769    3.6253 C   0  0  0  0  0  0  0  0  0  0  0  0
  -11.4922   48.6679    4.2032 C   0  0  0  0  0  0  0  0  0  0  0  0
  -11.3722   49.2379    5.4728 C   0  0  0  0  0  0  0  0  0  0  0  0
  -12.7056   50.0833    6.1566 Cl  0  0  0  0  0  0  0  0  0  0  0  0
  -10.1821   49.1299    6.1902 C   0  0  0  0  0  0  0  0  0  0  0  0
   -9.1022   48.4409    5.6368 C   0  0  0  0  0  0  0  0  0  0  0  0
   -9.2152   47.8677    4.3613 C   0  0  0  0  0  0  0  0  0  0  0  0
   -8.0525   47.1161    3.8289 C   0  0  0  0  0  0  0  0  0  0  0  0
   -6.9989   47.0848    4.4509 O   0  0  0  0  0  0  0  0  0  0  0  0
   -8.2739   46.5017    2.6219 N   0  0  0  0  0  0  0  0  0  0  0  0
   -9.1727   46.5471    2.2228 H   0  0  0  0  0  0  0  0  0  0  0  0
   -7.2261   45.7863    1.9131 C   0  0  0  0  0  0  0  0  0  0  0  0
   -7.7571   44.5101    1.2527 C   0  0  0  0  0  0  0  0  0  0  0  0
   -9.0708   44.4481    0.7585 C   0  0  0  0  0  0  0  0  0  0  0  0
   -9.5780   43.2726    0.1971 C   0  0  0  0  0  0  0  0  0  0  0  0
   -8.7962   42.1203    0.1335 C   0  0  0  0  0  0  0  0  0  0  0  0
   -7.5021   42.1522    0.6491 C   0  0  0  0  0  0  0  0  0  0  0  0
   -6.9938   43.3303    1.2127 C   0  0  0  0  0  0  0  0  0  0  0  0
   -9.4093   41.0418   -0.4398 O   0  0  0  0  0  0  0  0  0  0  0  0
  -10.3388   41.3093   -1.4814 C   0  0  0  0  0  0  0  0  0  0  0  0
   -6.5525   46.7751    0.9647 C   0  0  0  0  0  0  0  0  0  0  0  0
   -7.1216   47.1148   -0.2750 C   0  0  0  0  0  0  0  0  0  0  0  0
   -6.4918   48.0277   -1.1297 C   0  0  0  0  0  0  0  0  0  0  0  0
   -5.2856   48.6204   -0.7563 C   0  0  0  0  0  0  0  0  0  0  0  0
   -4.7234   48.3011    0.4812 C   0  0  0  0  0  0  0  0  0  0  0  0
   -5.3498   47.3921    1.3376 C   0  0  0  0  0  0  0  0  0  0  0  0
   -4.5659   49.5188   -1.4958 O   0  0  0  0  0  0  0  0  0  0  0  0
   -3.6995   50.3910   -0.7816 C   0  0  0  0  0  0  0  0  0  0  0  0
  -10.5442   47.4049    2.2273 C   0  0  0  0  0  0  0  0  0  0  0  0
  -10.3378   48.4271    1.1996 N   0  0  0  0  0  0  0  0  0  0  0  0
   -9.7682   49.6688    1.7193 C   0  0  0  0  0  0  0  0  0  0  0  0
   -8.1767   50.9132    0.2069 C   0  0  0  0  0  0  0  0  0  0  0  0
   -9.4193   50.6003    0.5940 C   0  0  0  0  0  0  0  0  0  0  0  0
  -11.4791   48.6114    0.2833 C   0  0  0  0  0  0  0  0  0  0  0  0
  -11.9176   47.4082   -0.5386 C   0  0  0  0  0  0  0  0  0  0  0  0
  -10.9776   46.8091   -1.4204 C   0  0  0  0  0  0  0  0  0  0  0  0
  -11.2977   45.6871   -2.1895 C   0  0  0  0  0  0  0  0  0  0  0  0
  -12.5730   45.1821   -2.0861 C   0  0  0  0  0  0  0  0  0  0  0  0
  -13.5168   45.7541   -1.2664 C   0  0  0  0  0  0  0  0  0  0  0  0
  -13.2192   46.8638   -0.4854 C   0  0  0  0  0  0  0  0  0  0  0  0
  -14.7206   45.1206   -1.3714 O   0  0  0  0  0  0  0  0  0  0  0  0
  -14.4124   44.0746   -2.3114 C   0  0  0  0  0  0  0  0  0  0  0  0
  -13.0525   44.1159   -2.7805 O   0  0  0  0  0  0  0  0  0  0  0  0
  -14.3070   47.4876    0.2803 C   0  0  0  0  0  0  0  0  0  0  0  0
  -14.7599   48.6019    0.1075 O   0  0  0  0  0  0  0  0  0  0  0  0
  -14.7725   46.6634    1.2366 O   0  0  0  0  0  0  0  0  0  0  0  0
  -14.3996   45.8102    1.3419 H   0  0  0  0  0  0  0  0  0  0  0  0
 32 33  2  0
 33 31  1  0
 31 30  1  0
 30 29  1  0
 29  1  1  0
  1  2  2  0
  2  3  1  0
  3  4  1  0
  3  5  2  0
  5  6  1  0
  6  7  2  0
  7  8  1  0
  8  9  2  0
  8 10  1  0
 10 12  1  0
 12 13  1  0
 13 14  2  0
 14 15  1  0
 15 16  2  0
 16 19  1  0
 19 20  1  0
 16 17  1  0
 17 18  2  0
 12 21  1  0
 21 22  2  0
 22 23  1  0
 23 24  2  0
 24 27  1  0
 27 28  1  0
 24 25  1  0
 25 26  2  0
 30 34  1  0
 34 35  1  0
 35 36  2  0
 36 37  1  0
 37 38  2  0
 38 39  1  0
 39 40  2  0
 40 44  1  0
 44 45  2  0
 44 46  1  0
 39 41  1  0
 41 42  1  0
 42 43  1  0
  7  1  1  0
 18 13  1  0
 26 21  1  0
 40 35  1  0
 43 38  1  0
 10 11  1  0
 46 47  1  0
M  END
> <minimizedAffinity>
-7.40372

> <CNNscore>
0.4763866961

> <CNNaffinity>
6.1375088692

> <CNN_VS>
2.9238276482

> <CNNaffinity_variance>
0.6993720531

$$$$
