


 32 33  0  0  0  0  0  0  0  0999 V2000
   -8.9867   13.1007   21.6864 C   0  0  0  0  0  0  0  0  0  0  0  0
   -8.9698   14.6271   21.4444 C   0  0  0  0  0  0  0  0  0  0  0  0
   -7.6555   15.1982   21.2850 O   0  0  0  0  0  0  0  0  0  0  0  0
   -7.4313   15.6287   19.8857 C   0  0  0  0  0  0  0  0  0  0  0  0
   -8.6923   15.1670   19.1518 C   0  0  0  0  0  0  0  0  0  0  0  0
   -9.7573   15.0466   20.2204 C   0  0  0  0  0  0  0  0  0  0  0  0
  -10.7885   14.1671   19.8105 O   0  0  0  0  0  0  0  0  0  0  0  0
  -11.4265   13.5264   20.9186 C   0  0  0  0  0  0  0  0  0  0  0  0
  -10.4648   12.5913   21.6765 C   0  0  0  0  0  0  0  0  0  0  0  0
  -10.4923   11.2726   21.0982 O   0  0  0  0  0  0  0  0  0  0  0  0
  -10.1763   11.3146   20.1821 H   0  0  0  0  0  0  0  0  0  0  0  0
   -8.9842   11.4400   19.9068 C   0  0  0  0  0  0  0  0  0  0  0  0
   -8.1636   12.3576   20.6965 N   0  0  0  0  0  0  0  0  0  0  0  0
   -7.7143   13.0251   20.0698 H   0  0  0  0  0  0  0  0  0  0  0  0
   -6.1676   14.8182   19.4592 C   0  0  0  0  0  0  0  0  0  0  0  0
   -5.7086   14.8566   17.9994 C   0  0  0  0  0  0  0  0  0  0  0  0
   -6.0352   13.6018   17.2880 N   0  0  0  0  0  0  0  0  0  0  0  0
   -5.5514   12.8223   17.7338 H   0  0  0  0  0  0  0  0  0  0  0  0
   -5.7374   13.6751   16.3152 H   0  0  0  0  0  0  0  0  0  0  0  0
   -4.2000   15.1597   17.9455 C   0  0  0  0  0  0  0  0  0  0  0  0
   -3.3325   14.3647   17.6280 O   0  0  0  0  0  0  0  0  0  0  0  0
   -3.8934   16.4122   18.3424 O   0  0  0  0  0  0  0  0  0  0  0  0
   -4.5757   17.0079   18.5823 H   0  0  0  0  0  0  0  0  0  0  0  0
   -7.0762   17.1545   20.0528 C   0  0  0  0  0  0  0  0  0  0  0  0
   -7.4517   18.0529   21.3068 N   0  0  0  0  0  0  0  0  0  0  0  0
   -6.3571   17.9719   22.3430 C   0  0  0  0  0  0  0  0  0  0  0  0
   -7.6399   19.4919   20.8420 C   0  0  0  0  0  0  0  0  0  0  0  0
   -8.7942   17.4704   21.7788 C   0  0  0  0  0  0  0  0  0  0  0  0
  -10.1356   18.0693   21.3905 N   0  0  0  0  0  0  0  0  0  0  0  0
  -10.6228   17.6380   20.0040 C   0  0  0  0  0  0  0  0  0  0  0  0
   -9.8827   19.6068   21.2694 C   0  0  0  0  0  0  0  0  0  0  0  0
  -11.2601   17.9192   22.3989 C   0  0  0  0  0  0  0  0  0  0  0  0
 12 13  1  0
  1 13  1  0
  1  2  1  0
  2  3  1  0
  3  4  1  0
  4 15  1  0
 15 16  1  0
 16 17  1  0
 16 20  1  0
 20 21  2  0
 20 22  1  0
  4 24  1  0
 24 25  1  0
 25 26  1  0
 25 27  1  0
 25 28  1  0
 28 29  1  0
 29 30  1  0
 29 31  1  0
 29 32  1  0
  4  5  1  0
  6  5  1  0
  6  7  1  0
  7  8  1  0
  8  9  1  0
  9 10  1  0
  9  1  1  0
  6  2  1  0
 13 14  1  0
 17 18  1  0
 17 19  1  0
 22 23  1  0
 10 11  1  0
M  CHG 1  25   1
M  CHG 1  29   1
M  END
> <minimizedAffinity>
-1.48271

> <CNNscore>
0.6374148130

> <CNNaffinity>
6.7912726402

> <CNN_VS>
4.3288578987

> <CNNaffinity_variance>
0.0199430827

$$$$



 32 33  0  0  0  0  0  0  0  0999 V2000
   -9.8300   13.4865   21.1969 C   0  0  0  0  0  0  0  0  0  0  0  0
   -9.0767   14.8023   21.4967 C   0  0  0  0  0  0  0  0  0  0  0  0
   -7.6410   14.7114   21.3992 O   0  0  0  0  0  0  0  0  0  0  0  0
   -7.1422   15.4543   20.2190 C   0  0  0  0  0  0  0  0  0  0  0  0
   -8.4166   15.9271   19.5159 C   0  0  0  0  0  0  0  0  0  0  0  0
   -9.4842   15.9441   20.5885 C   0  0  0  0  0  0  0  0  0  0  0  0
  -10.7768   15.8561   20.0174 O   0  0  0  0  0  0  0  0  0  0  0  0
  -11.7181   15.2386   20.8997 C   0  0  0  0  0  0  0  0  0  0  0  0
  -11.3685   13.7638   21.1761 C   0  0  0  0  0  0  0  0  0  0  0  0
  -11.9752   12.9132   20.1848 O   0  0  0  0  0  0  0  0  0  0  0  0
  -11.6132   13.1265   19.3105 H   0  0  0  0  0  0  0  0  0  0  0  0
   -8.6721   11.6036   20.1775 C   0  0  0  0  0  0  0  0  0  0  0  0
   -9.3885   12.8538   19.9263 N   0  0  0  0  0  0  0  0  0  0  0  0
  -10.2072   12.6579   19.3504 H   0  0  0  0  0  0  0  0  0  0  0  0
   -6.3851   14.3618   19.4012 C   0  0  0  0  0  0  0  0  0  0  0  0
   -5.8834   14.6913   17.9931 C   0  0  0  0  0  0  0  0  0  0  0  0
   -6.0341   13.5425   17.0737 N   0  0  0  0  0  0  0  0  0  0  0  0
   -5.4772   12.7589   17.4146 H   0  0  0  0  0  0  0  0  0  0  0  0
   -5.7134   13.8080   16.1425 H   0  0  0  0  0  0  0  0  0  0  0  0
   -4.4204   15.1649   18.0694 C   0  0  0  0  0  0  0  0  0  0  0  0
   -4.0562   16.2748   18.4170 O   0  0  0  0  0  0  0  0  0  0  0  0
   -3.5363   14.2334   17.6558 O   0  0  0  0  0  0  0  0  0  0  0  0
   -3.8373   13.3859   17.3927 H   0  0  0  0  0  0  0  0  0  0  0  0
   -6.1210   16.4670   20.8623 C   0  0  0  0  0  0  0  0  0  0  0  0
   -6.1751   17.0016   22.3562 N   0  0  0  0  0  0  0  0  0  0  0  0
   -7.0332   16.0886   23.1978 C   0  0  0  0  0  0  0  0  0  0  0  0
   -4.7564   17.0591   22.9095 C   0  0  0  0  0  0  0  0  0  0  0  0
   -6.7432   18.4230   22.2102 C   0  0  0  0  0  0  0  0  0  0  0  0
   -7.6871   18.8231   21.0887 N   0  0  0  0  0  0  0  0  0  0  0  0
   -7.2754   18.2815   19.7165 C   0  0  0  0  0  0  0  0  0  0  0  0
   -7.5510   20.3753   20.9674 C   0  0  0  0  0  0  0  0  0  0  0  0
   -9.1637   18.5602   21.3219 C   0  0  0  0  0  0  0  0  0  0  0  0
 12 13  1  0
  1 13  1  0
  1  2  1  0
  2  3  1  0
  3  4  1  0
  4 15  1  0
 15 16  1  0
 16 17  1  0
 16 20  1  0
 20 21  2  0
 20 22  1  0
  4 24  1  0
 24 25  1  0
 25 26  1  0
 25 27  1  0
 25 28  1  0
 28 29  1  0
 29 30  1  0
 29 31  1  0
 29 32  1  0
  4  5  1  0
  6  5  1  0
  6  7  1  0
  7  8  1  0
  8  9  1  0
  9 10  1  0
  9  1  1  0
  6  2  1  0
 13 14  1  0
 17 18  1  0
 17 19  1  0
 22 23  1  0
 10 11  1  0
M  CHG 1  25   1
M  CHG 1  29   1
M  END
> <minimizedAffinity>
-0.56460

> <CNNscore>
0.4693737924

> <CNNaffinity>
6.7950797081

> <CNN_VS>
3.1894323826

> <CNNaffinity_variance>
0.1373621374

$$$$



 32 33  0  0  0  0  0  0  0  0999 V2000
   -9.9452   13.7158   20.7898 C   0  0  0  0  0  0  0  0  0  0  0  0
   -9.2070   13.9985   22.1179 C   0  0  0  0  0  0  0  0  0  0  0  0
   -7.7803   14.1648   21.9916 O   0  0  0  0  0  0  0  0  0  0  0  0
   -7.3886   15.5737   22.2266 C   0  0  0  0  0  0  0  0  0  0  0  0
   -8.7228   16.3030   22.4000 C   0  0  0  0  0  0  0  0  0  0  0  0
   -9.7095   15.2383   22.8284 C   0  0  0  0  0  0  0  0  0  0  0  0
  -11.0375   15.6309   22.5338 O   0  0  0  0  0  0  0  0  0  0  0  0
  -11.8954   14.5101   22.3028 C   0  0  0  0  0  0  0  0  0  0  0  0
  -11.4879   13.7213   21.0436 C   0  0  0  0  0  0  0  0  0  0  0  0
  -12.1427   14.2643   19.8814 O   0  0  0  0  0  0  0  0  0  0  0  0
  -11.8512   15.1792   19.7439 H   0  0  0  0  0  0  0  0  0  0  0  0
  -10.3731   15.9058   19.8171 C   0  0  0  0  0  0  0  0  0  0  0  0
   -9.5810   14.6802   19.7188 N   0  0  0  0  0  0  0  0  0  0  0  0
   -8.5923   14.9155   19.8055 H   0  0  0  0  0  0  0  0  0  0  0  0
   -6.6646   15.9704   20.9021 C   0  0  0  0  0  0  0  0  0  0  0  0
   -6.8232   15.0828   19.6652 C   0  0  0  0  0  0  0  0  0  0  0  0
   -6.8377   13.6465   20.0181 N   0  0  0  0  0  0  0  0  0  0  0  0
   -5.9514   13.3950   20.4558 H   0  0  0  0  0  0  0  0  0  0  0  0
   -6.9697   13.0901   19.1735 H   0  0  0  0  0  0  0  0  0  0  0  0
   -5.7043   15.4050   18.6578 C   0  0  0  0  0  0  0  0  0  0  0  0
   -4.9372   16.3489   18.7348 O   0  0  0  0  0  0  0  0  0  0  0  0
   -5.6685   14.5548   17.6108 O   0  0  0  0  0  0  0  0  0  0  0  0
   -6.2673   13.8352   17.5710 H   0  0  0  0  0  0  0  0  0  0  0  0
   -6.3501   15.4453   23.4045 C   0  0  0  0  0  0  0  0  0  0  0  0
   -6.7029   15.0494   24.9009 N   0  0  0  0  0  0  0  0  0  0  0  0
   -6.0099   15.9888   25.8578 C   0  0  0  0  0  0  0  0  0  0  0  0
   -8.2139   15.1204   25.0851 C   0  0  0  0  0  0  0  0  0  0  0  0
   -6.2253   13.5920   25.0106 C   0  0  0  0  0  0  0  0  0  0  0  0
   -6.1430   12.8480   26.3329 N   0  0  0  0  0  0  0  0  0  0  0  0
   -5.2229   13.5172   27.3582 C   0  0  0  0  0  0  0  0  0  0  0  0
   -5.4526   11.4862   25.9991 C   0  0  0  0  0  0  0  0  0  0  0  0
   -7.4634   12.4859   26.9880 C   0  0  0  0  0  0  0  0  0  0  0  0
 12 13  1  0
  1 13  1  0
  1  2  1  0
  2  3  1  0
  3  4  1  0
  4 15  1  0
 15 16  1  0
 16 17  1  0
 16 20  1  0
 20 21  2  0
 20 22  1  0
  4 24  1  0
 24 25  1  0
 25 26  1  0
 25 27  1  0
 25 28  1  0
 28 29  1  0
 29 30  1  0
 29 31  1  0
 29 32  1  0
  4  5  1  0
  6  5  1  0
  6  7  1  0
  7  8  1  0
  8  9  1  0
  9 10  1  0
  9  1  1  0
  6  2  1  0
 13 14  1  0
 17 18  1  0
 17 19  1  0
 22 23  1  0
 10 11  1  0
M  CHG 1  25   1
M  CHG 1  29   1
M  END
> <minimizedAffinity>
2.52485

> <CNNscore>
0.3827983141

> <CNNaffinity>
6.4676232338

> <CNN_VS>
2.4757952690

> <CNNaffinity_variance>
0.1955349445

$$$$



 32 33  0  0  0  0  0  0  0  0999 V2000
   -3.3677   22.4750   12.5634 C   0  0  0  0  0  0  0  0  0  0  0  0
   -4.8014   22.5255   11.9885 C   0  0  0  0  0  0  0  0  0  0  0  0
   -4.9215   23.2116   10.7260 O   0  0  0  0  0  0  0  0  0  0  0  0
   -5.2130   22.2582    9.6308 C   0  0  0  0  0  0  0  0  0  0  0  0
   -5.1507   20.8878   10.3091 C   0  0  0  0  0  0  0  0  0  0  0  0
   -5.4086   21.1541   11.7765 C   0  0  0  0  0  0  0  0  0  0  0  0
   -4.8881   20.1106   12.5794 O   0  0  0  0  0  0  0  0  0  0  0  0
   -4.5188   20.5639   13.8847 C   0  0  0  0  0  0  0  0  0  0  0  0
   -3.3525   21.5695   13.8378 C   0  0  0  0  0  0  0  0  0  0  0  0
   -2.0922   20.8745   13.8925 O   0  0  0  0  0  0  0  0  0  0  0  0
   -2.0022   20.3063   13.1114 H   0  0  0  0  0  0  0  0  0  0  0  0
   -1.4208   23.0629   11.2258 C   0  0  0  0  0  0  0  0  0  0  0  0
   -2.3703   22.0040   11.5669 N   0  0  0  0  0  0  0  0  0  0  0  0
   -1.8592   21.2121   11.9568 H   0  0  0  0  0  0  0  0  0  0  0  0
   -4.0307   22.4813    8.6368 C   0  0  0  0  0  0  0  0  0  0  0  0
   -3.1333   23.7104    8.8015 C   0  0  0  0  0  0  0  0  0  0  0  0
   -1.8240   23.3591    9.3929 N   0  0  0  0  0  0  0  0  0  0  0  0
   -1.9658   22.9648   10.3229 H   0  0  0  0  0  0  0  0  0  0  0  0
   -1.2469   24.1971    9.4633 H   0  0  0  0  0  0  0  0  0  0  0  0
   -3.8670   24.7700    9.6439 C   0  0  0  0  0  0  0  0  0  0  0  0
   -4.4418   25.7487    9.2001 O   0  0  0  0  0  0  0  0  0  0  0  0
   -3.7781   24.5501   10.9721 O   0  0  0  0  0  0  0  0  0  0  0  0
   -3.3316   23.7912   11.2925 H   0  0  0  0  0  0  0  0  0  0  0  0
   -6.5525   22.8304    9.0303 C   0  0  0  0  0  0  0  0  0  0  0  0
   -6.7060   24.2297    8.2961 N   0  0  0  0  0  0  0  0  0  0  0  0
   -5.4932   24.4951    7.4376 C   0  0  0  0  0  0  0  0  0  0  0  0
   -7.9676   24.2009    7.4419 C   0  0  0  0  0  0  0  0  0  0  0  0
   -6.8744   25.2277    9.4537 C   0  0  0  0  0  0  0  0  0  0  0  0
   -7.9609   26.2897    9.4760 N   0  0  0  0  0  0  0  0  0  0  0  0
   -9.1747   25.9452    8.6078 C   0  0  0  0  0  0  0  0  0  0  0  0
   -7.3245   27.5468    8.7997 C   0  0  0  0  0  0  0  0  0  0  0  0
   -8.4244   26.7538   10.8448 C   0  0  0  0  0  0  0  0  0  0  0  0
 12 13  1  0
  1 13  1  0
  1  2  1  0
  2  3  1  0
  3  4  1  0
  4 15  1  0
 15 16  1  0
 16 17  1  0
 16 20  1  0
 20 21  2  0
 20 22  1  0
  4 24  1  0
 24 25  1  0
 25 26  1  0
 25 27  1  0
 25 28  1  0
 28 29  1  0
 29 30  1  0
 29 31  1  0
 29 32  1  0
  4  5  1  0
  6  5  1  0
  6  7  1  0
  7  8  1  0
  8  9  1  0
  9 10  1  0
  9  1  1  0
  6  2  1  0
 13 14  1  0
 17 18  1  0
 17 19  1  0
 22 23  1  0
 10 11  1  0
M  CHG 1  25   1
M  CHG 1  29   1
M  END
> <minimizedAffinity>
0.98426

> <CNNscore>
0.3479880393

> <CNNaffinity>
4.0072650909

> <CNN_VS>
1.3944803476

> <CNNaffinity_variance>
0.1157807931

$$$$



 32 33  0  0  0  0  0  0  0  0999 V2000
  -18.4337    9.9913   28.9668 C   0  0  0  0  0  0  0  0  0  0  0  0
  -17.6230    9.5640   27.7222 C   0  0  0  0  0  0  0  0  0  0  0  0
  -16.1918    9.6483   27.8761 O   0  0  0  0  0  0  0  0  0  0  0  0
  -15.5848    8.2985   27.9320 C   0  0  0  0  0  0  0  0  0  0  0  0
  -16.7877    7.3526   27.9140 C   0  0  0  0  0  0  0  0  0  0  0  0
  -17.9113    8.1442   27.2802 C   0  0  0  0  0  0  0  0  0  0  0  0
  -19.1726    7.6191   27.6518 O   0  0  0  0  0  0  0  0  0  0  0  0
  -20.1966    8.6177   27.6520 C   0  0  0  0  0  0  0  0  0  0  0  0
  -19.9497    9.6972   28.7232 C   0  0  0  0  0  0  0  0  0  0  0  0
  -20.5482    9.3053   29.9732 O   0  0  0  0  0  0  0  0  0  0  0  0
  -20.1257    8.4930   30.2934 H   0  0  0  0  0  0  0  0  0  0  0  0
  -18.2514   10.1458   31.3891 C   0  0  0  0  0  0  0  0  0  0  0  0
  -17.9589    9.3305   30.2107 N   0  0  0  0  0  0  0  0  0  0  0  0
  -18.4251    8.4283   30.3066 H   0  0  0  0  0  0  0  0  0  0  0  0
  -14.8479    8.2933   29.3076 C   0  0  0  0  0  0  0  0  0  0  0  0
  -15.6503    8.0492   30.5881 C   0  0  0  0  0  0  0  0  0  0  0  0
  -15.3762    9.0799   31.6128 N   0  0  0  0  0  0  0  0  0  0  0  0
  -14.3890    9.0517   31.8678 H   0  0  0  0  0  0  0  0  0  0  0  0
  -15.9461    8.8981   32.4390 H   0  0  0  0  0  0  0  0  0  0  0  0
  -15.3515    6.6344   31.1169 C   0  0  0  0  0  0  0  0  0  0  0  0
  -14.8268    6.3782   32.1867 O   0  0  0  0  0  0  0  0  0  0  0  0
  -15.6831    5.6587   30.2460 O   0  0  0  0  0  0  0  0  0  0  0  0
  -16.0858    5.8773   29.4287 H   0  0  0  0  0  0  0  0  0  0  0  0
  -14.5441    8.3454   26.7501 C   0  0  0  0  0  0  0  0  0  0  0  0
  -13.3382    9.3708   26.6281 N   0  0  0  0  0  0  0  0  0  0  0  0
  -13.8401   10.7802   26.8286 C   0  0  0  0  0  0  0  0  0  0  0  0
  -12.2898    9.0241   27.6782 C   0  0  0  0  0  0  0  0  0  0  0  0
  -12.7819    9.1074   25.2190 C   0  0  0  0  0  0  0  0  0  0  0  0
  -13.3185    9.7995   23.9774 N   0  0  0  0  0  0  0  0  0  0  0  0
  -12.2524   10.0574   22.9085 C   0  0  0  0  0  0  0  0  0  0  0  0
  -13.7633   11.2196   24.4549 C   0  0  0  0  0  0  0  0  0  0  0  0
  -14.5479    9.1811   23.3369 C   0  0  0  0  0  0  0  0  0  0  0  0
 12 13  1  0
  1 13  1  0
  1  2  1  0
  2  3  1  0
  3  4  1  0
  4 15  1  0
 15 16  1  0
 16 17  1  0
 16 20  1  0
 20 21  2  0
 20 22  1  0
  4 24  1  0
 24 25  1  0
 25 26  1  0
 25 27  1  0
 25 28  1  0
 28 29  1  0
 29 30  1  0
 29 31  1  0
 29 32  1  0
  4  5  1  0
  6  5  1  0
  6  7  1  0
  7  8  1  0
  8  9  1  0
  9 10  1  0
  9  1  1  0
  6  2  1  0
 13 14  1  0
 17 18  1  0
 17 19  1  0
 22 23  1  0
 10 11  1  0
M  CHG 1  25   1
M  CHG 1  29   1
M  END
> <minimizedAffinity>
-0.79120

> <CNNscore>
0.3194275796

> <CNNaffinity>
4.9368128777

> <CNN_VS>
1.5769542456

> <CNNaffinity_variance>
0.3750137389

$$$$



 32 33  0  0  0  0  0  0  0  0999 V2000
    3.2607   23.4935   30.4416 C   0  0  0  0  0  0  0  0  0  0  0  0
    2.5226   24.4976   29.5273 C   0  0  0  0  0  0  0  0  0  0  0  0
    1.3314   23.9803   28.9008 O   0  0  0  0  0  0  0  0  0  0  0  0
    0.1173   24.6054   29.4743 C   0  0  0  0  0  0  0  0  0  0  0  0
    0.6551   25.4845   30.6057 C   0  0  0  0  0  0  0  0  0  0  0  0
    2.0992   25.7612   30.2472 C   0  0  0  0  0  0  0  0  0  0  0  0
    2.8494   26.1048   31.3978 O   0  0  0  0  0  0  0  0  0  0  0  0
    4.2295   25.7513   31.2704 C   0  0  0  0  0  0  0  0  0  0  0  0
    4.4284   24.2263   31.1788 C   0  0  0  0  0  0  0  0  0  0  0  0
    4.5660   23.6613   32.4965 O   0  0  0  0  0  0  0  0  0  0  0  0
    3.7481   23.8063   32.9974 H   0  0  0  0  0  0  0  0  0  0  0  0
    2.6141   21.3972   31.4962 C   0  0  0  0  0  0  0  0  0  0  0  0
    2.3511   22.8336   31.4146 N   0  0  0  0  0  0  0  0  0  0  0  0
    2.4906   23.2499   32.3352 H   0  0  0  0  0  0  0  0  0  0  0  0
   -0.6964   23.3853   30.0080 C   0  0  0  0  0  0  0  0  0  0  0  0
   -1.5198   23.5349   31.2896 C   0  0  0  0  0  0  0  0  0  0  0  0
   -0.8477   24.4093   32.2752 N   0  0  0  0  0  0  0  0  0  0  0  0
    0.0471   23.9977   32.5403 H   0  0  0  0  0  0  0  0  0  0  0  0
   -1.4366   24.5045   33.1026 H   0  0  0  0  0  0  0  0  0  0  0  0
   -1.8098   22.1415   31.8768 C   0  0  0  0  0  0  0  0  0  0  0  0
   -2.9004   21.7484   32.2530 O   0  0  0  0  0  0  0  0  0  0  0  0
   -0.7073   21.3729   31.9951 O   0  0  0  0  0  0  0  0  0  0  0  0
    0.1218   21.6942   31.6995 H   0  0  0  0  0  0  0  0  0  0  0  0
   -0.5813   25.2192   28.2026 C   0  0  0  0  0  0  0  0  0  0  0  0
    0.0458   26.3284   27.2555 N   0  0  0  0  0  0  0  0  0  0  0  0
   -0.8127   27.5697   27.2796 C   0  0  0  0  0  0  0  0  0  0  0  0
    1.4560   26.6465   27.7376 C   0  0  0  0  0  0  0  0  0  0  0  0
    0.0999   25.6407   25.8813 C   0  0  0  0  0  0  0  0  0  0  0  0
    0.6788   26.3098   24.6460 N   0  0  0  0  0  0  0  0  0  0  0  0
   -0.3591   26.5883   23.5547 C   0  0  0  0  0  0  0  0  0  0  0  0
    1.6490   25.2559   24.0210 C   0  0  0  0  0  0  0  0  0  0  0  0
    1.5212   27.5504   24.8814 C   0  0  0  0  0  0  0  0  0  0  0  0
 12 13  1  0
  1 13  1  0
  1  2  1  0
  2  3  1  0
  3  4  1  0
  4 15  1  0
 15 16  1  0
 16 17  1  0
 16 20  1  0
 20 21  2  0
 20 22  1  0
  4 24  1  0
 24 25  1  0
 25 26  1  0
 25 27  1  0
 25 28  1  0
 28 29  1  0
 29 30  1  0
 29 31  1  0
 29 32  1  0
  4  5  1  0
  6  5  1  0
  6  7  1  0
  7  8  1  0
  8  9  1  0
  9 10  1  0
  9  1  1  0
  6  2  1  0
 13 14  1  0
 17 18  1  0
 17 19  1  0
 22 23  1  0
 10 11  1  0
M  CHG 1  25   1
M  CHG 1  29   1
M  END
> <minimizedAffinity>
-1.65236

> <CNNscore>
0.3077863157

> <CNNaffinity>
4.3134799004

> <CNN_VS>
1.3276300430

> <CNNaffinity_variance>
0.2183280140

$$$$



 32 33  0  0  0  0  0  0  0  0999 V2000
   -2.6893    9.7216   30.5336 C   0  0  0  0  0  0  0  0  0  0  0  0
   -2.8617   10.9382   29.5961 C   0  0  0  0  0  0  0  0  0  0  0  0
   -4.2199   11.1966   29.1864 O   0  0  0  0  0  0  0  0  0  0  0  0
   -4.7377   12.4318   29.8185 C   0  0  0  0  0  0  0  0  0  0  0  0
   -3.6104   12.8651   30.7585 C   0  0  0  0  0  0  0  0  0  0  0  0
   -2.3549   12.2326   30.1979 C   0  0  0  0  0  0  0  0  0  0  0  0
   -1.3607   12.1081   31.1983 O   0  0  0  0  0  0  0  0  0  0  0  0
   -0.4783   11.0099   30.9516 C   0  0  0  0  0  0  0  0  0  0  0  0
   -1.2077    9.6550   31.0282 C   0  0  0  0  0  0  0  0  0  0  0  0
   -1.1967    9.1584   32.3801 O   0  0  0  0  0  0  0  0  0  0  0  0
   -1.6842    9.7705   32.9534 H   0  0  0  0  0  0  0  0  0  0  0  0
   -3.3628   10.8895   32.5602 C   0  0  0  0  0  0  0  0  0  0  0  0
   -3.6310    9.7501   31.6833 N   0  0  0  0  0  0  0  0  0  0  0  0
   -4.5853    9.8200   31.3299 H   0  0  0  0  0  0  0  0  0  0  0  0
   -5.9981   11.9366   30.5942 C   0  0  0  0  0  0  0  0  0  0  0  0
   -6.5742   10.5526   30.2846 C   0  0  0  0  0  0  0  0  0  0  0  0
   -7.4270   10.5706   29.0762 N   0  0  0  0  0  0  0  0  0  0  0  0
   -8.2174   11.1973   29.2272 H   0  0  0  0  0  0  0  0  0  0  0  0
   -7.7708    9.6288   28.8887 H   0  0  0  0  0  0  0  0  0  0  0  0
   -7.3455   10.0336   31.5119 C   0  0  0  0  0  0  0  0  0  0  0  0
   -8.5199   10.2549   31.7514 O   0  0  0  0  0  0  0  0  0  0  0  0
   -6.5761    9.3263   32.3651 O   0  0  0  0  0  0  0  0  0  0  0  0
   -5.6753    9.1674   32.1618 H   0  0  0  0  0  0  0  0  0  0  0  0
   -5.1629   13.2979   28.5729 C   0  0  0  0  0  0  0  0  0  0  0  0
   -5.4593   12.7326   27.1193 N   0  0  0  0  0  0  0  0  0  0  0  0
   -4.9791   11.3053   27.0153 C   0  0  0  0  0  0  0  0  0  0  0  0
   -6.9585   12.8107   26.8577 C   0  0  0  0  0  0  0  0  0  0  0  0
   -4.7102   13.7059   26.1942 C   0  0  0  0  0  0  0  0  0  0  0  0
   -5.0879   15.1714   26.0588 N   0  0  0  0  0  0  0  0  0  0  0  0
   -4.1280   15.9742   25.1757 C   0  0  0  0  0  0  0  0  0  0  0  0
   -4.9204   15.7758   27.4903 C   0  0  0  0  0  0  0  0  0  0  0  0
   -6.5218   15.4655   25.6572 C   0  0  0  0  0  0  0  0  0  0  0  0
 12 13  1  0
  1 13  1  0
  1  2  1  0
  2  3  1  0
  3  4  1  0
  4 15  1  0
 15 16  1  0
 16 17  1  0
 16 20  1  0
 20 21  2  0
 20 22  1  0
  4 24  1  0
 24 25  1  0
 25 26  1  0
 25 27  1  0
 25 28  1  0
 28 29  1  0
 29 30  1  0
 29 31  1  0
 29 32  1  0
  4  5  1  0
  6  5  1  0
  6  7  1  0
  7  8  1  0
  8  9  1  0
  9 10  1  0
  9  1  1  0
  6  2  1  0
 13 14  1  0
 17 18  1  0
 17 19  1  0
 22 23  1  0
 10 11  1  0
M  CHG 1  25   1
M  CHG 1  29   1
M  END
> <minimizedAffinity>
1.20429

> <CNNscore>
0.2673490047

> <CNNaffinity>
3.9028842449

> <CNN_VS>
1.0434322357

> <CNNaffinity_variance>
0.4461313188

$$$$



 32 33  0  0  0  0  0  0  0  0999 V2000
   -5.9020   10.5834   29.6226 C   0  0  0  0  0  0  0  0  0  0  0  0
   -7.0844    9.8185   28.9858 C   0  0  0  0  0  0  0  0  0  0  0  0
   -7.6074    8.7403   29.7878 O   0  0  0  0  0  0  0  0  0  0  0  0
   -8.9515    9.0745   30.3126 C   0  0  0  0  0  0  0  0  0  0  0  0
   -9.1763   10.5182   29.8571 C   0  0  0  0  0  0  0  0  0  0  0  0
   -8.2667   10.7083   28.6624 C   0  0  0  0  0  0  0  0  0  0  0  0
   -7.9782   12.0795   28.4592 O   0  0  0  0  0  0  0  0  0  0  0  0
   -6.7074   12.2790   27.8338 C   0  0  0  0  0  0  0  0  0  0  0  0
   -5.5436   11.8171   28.7316 C   0  0  0  0  0  0  0  0  0  0  0  0
   -5.1168   12.8936   29.5879 O   0  0  0  0  0  0  0  0  0  0  0  0
   -5.8435   13.1435   30.1798 H   0  0  0  0  0  0  0  0  0  0  0  0
   -6.6387    9.8749   31.8316 C   0  0  0  0  0  0  0  0  0  0  0  0
   -6.1814   11.0030   31.0209 N   0  0  0  0  0  0  0  0  0  0  0  0
   -5.3282   11.3828   31.4309 H   0  0  0  0  0  0  0  0  0  0  0  0
   -8.7709    8.9627   31.8587 C   0  0  0  0  0  0  0  0  0  0  0  0
   -7.5402    8.2467   32.4208 C   0  0  0  0  0  0  0  0  0  0  0  0
   -6.3265    8.5350   31.6262 N   0  0  0  0  0  0  0  0  0  0  0  0
   -6.4578    8.2006   30.6716 H   0  0  0  0  0  0  0  0  0  0  0  0
   -5.5257    8.0622   32.0451 H   0  0  0  0  0  0  0  0  0  0  0  0
   -7.8188    6.7344   32.4969 C   0  0  0  0  0  0  0  0  0  0  0  0
   -8.9238    6.2235   32.5551 O   0  0  0  0  0  0  0  0  0  0  0  0
   -6.6964    5.9874   32.5473 O   0  0  0  0  0  0  0  0  0  0  0  0
   -5.8565    6.4002   32.5009 H   0  0  0  0  0  0  0  0  0  0  0  0
   -9.8318    7.8843   29.7736 C   0  0  0  0  0  0  0  0  0  0  0  0
   -9.4703    6.3436   29.9005 N   0  0  0  0  0  0  0  0  0  0  0  0
   -9.4690    5.7019   28.5342 C   0  0  0  0  0  0  0  0  0  0  0  0
   -8.0990    6.2124   30.5520 C   0  0  0  0  0  0  0  0  0  0  0  0
  -10.5564    5.7945   30.8403 C   0  0  0  0  0  0  0  0  0  0  0  0
  -10.8754    4.3134   30.9562 N   0  0  0  0  0  0  0  0  0  0  0  0
  -10.2017    3.6314   32.1506 C   0  0  0  0  0  0  0  0  0  0  0  0
  -10.2298    3.6514   29.6963 C   0  0  0  0  0  0  0  0  0  0  0  0
  -12.3440    3.9327   30.9095 C   0  0  0  0  0  0  0  0  0  0  0  0
 12 13  1  0
  1 13  1  0
  1  2  1  0
  2  3  1  0
  3  4  1  0
  4 15  1  0
 15 16  1  0
 16 17  1  0
 16 20  1  0
 20 21  2  0
 20 22  1  0
  4 24  1  0
 24 25  1  0
 25 26  1  0
 25 27  1  0
 25 28  1  0
 28 29  1  0
 29 30  1  0
 29 31  1  0
 29 32  1  0
  4  5  1  0
  6  5  1  0
  6  7  1  0
  7  8  1  0
  8  9  1  0
  9 10  1  0
  9  1  1  0
  6  2  1  0
 13 14  1  0
 17 18  1  0
 17 19  1  0
 22 23  1  0
 10 11  1  0
M  CHG 1  25   1
M  CHG 1  29   1
M  END
> <minimizedAffinity>
1.63022

> <CNNscore>
0.2416234165

> <CNNaffinity>
4.2157878876

> <CNN_VS>
1.0186331272

> <CNNaffinity_variance>
0.0403223820

$$$$



 32 33  0  0  0  0  0  0  0  0999 V2000
  -13.3933    8.7586   27.1396 C   0  0  0  0  0  0  0  0  0  0  0  0
  -14.7424    8.0202   27.2936 C   0  0  0  0  0  0  0  0  0  0  0  0
  -15.2325    7.9350   28.6470 O   0  0  0  0  0  0  0  0  0  0  0  0
  -16.4231    8.7957   28.8342 C   0  0  0  0  0  0  0  0  0  0  0  0
  -16.5669    9.5219   27.4947 C   0  0  0  0  0  0  0  0  0  0  0  0
  -15.8605    8.6440   26.4843 C   0  0  0  0  0  0  0  0  0  0  0  0
  -15.4661    9.3942   25.3501 O   0  0  0  0  0  0  0  0  0  0  0  0
  -14.3074    8.8470   24.7147 C   0  0  0  0  0  0  0  0  0  0  0  0
  -13.0631    8.9220   25.6203 C   0  0  0  0  0  0  0  0  0  0  0  0
  -12.3831   10.1774   25.4304 O   0  0  0  0  0  0  0  0  0  0  0  0
  -12.9667   10.9048   25.6975 H   0  0  0  0  0  0  0  0  0  0  0  0
  -13.2405   11.1732   26.8728 C   0  0  0  0  0  0  0  0  0  0  0  0
  -13.3825   10.0755   27.8288 N   0  0  0  0  0  0  0  0  0  0  0  0
  -14.2579   10.1907   28.3396 H   0  0  0  0  0  0  0  0  0  0  0  0
  -15.9932    9.7571   29.9859 C   0  0  0  0  0  0  0  0  0  0  0  0
  -16.9002   10.9317   30.3612 C   0  0  0  0  0  0  0  0  0  0  0  0
  -16.1513   12.0058   31.0489 N   0  0  0  0  0  0  0  0  0  0  0  0
  -15.7563   11.6431   31.9165 H   0  0  0  0  0  0  0  0  0  0  0  0
  -16.7824   12.7790   31.2597 H   0  0  0  0  0  0  0  0  0  0  0  0
  -18.0702   10.4198   31.2212 C   0  0  0  0  0  0  0  0  0  0  0  0
  -17.9664    9.9296   32.3322 O   0  0  0  0  0  0  0  0  0  0  0  0
  -19.2663   10.5129   30.6038 O   0  0  0  0  0  0  0  0  0  0  0  0
  -19.3241   10.8934   29.7495 H   0  0  0  0  0  0  0  0  0  0  0  0
  -17.5050    7.7716   29.3469 C   0  0  0  0  0  0  0  0  0  0  0  0
  -17.2696    6.6699   30.4655 N   0  0  0  0  0  0  0  0  0  0  0  0
  -16.1561    7.1039   31.3876 C   0  0  0  0  0  0  0  0  0  0  0  0
  -18.5638    6.4780   31.2467 C   0  0  0  0  0  0  0  0  0  0  0  0
  -16.9458    5.4011   29.6596 C   0  0  0  0  0  0  0  0  0  0  0  0
  -17.8422    4.8771   28.5503 N   0  0  0  0  0  0  0  0  0  0  0  0
  -17.8994    5.7915   27.3230 C   0  0  0  0  0  0  0  0  0  0  0  0
  -19.2891    4.9028   29.1406 C   0  0  0  0  0  0  0  0  0  0  0  0
  -17.6065    3.4433   28.1112 C   0  0  0  0  0  0  0  0  0  0  0  0
 12 13  1  0
  1 13  1  0
  1  2  1  0
  2  3  1  0
  3  4  1  0
  4 15  1  0
 15 16  1  0
 16 17  1  0
 16 20  1  0
 20 21  2  0
 20 22  1  0
  4 24  1  0
 24 25  1  0
 25 26  1  0
 25 27  1  0
 25 28  1  0
 28 29  1  0
 29 30  1  0
 29 31  1  0
 29 32  1  0
  4  5  1  0
  6  5  1  0
  6  7  1  0
  7  8  1  0
  8  9  1  0
  9 10  1  0
  9  1  1  0
  6  2  1  0
 13 14  1  0
 17 18  1  0
 17 19  1  0
 22 23  1  0
 10 11  1  0
M  CHG 1  25   1
M  CHG 1  29   1
M  END
> <minimizedAffinity>
0.77631

> <CNNscore>
0.2097382545

> <CNNaffinity>
4.2606511116

> <CNN_VS>
0.8936215043

> <CNNaffinity_variance>
0.7619090080

$$$$
