


 36 39  0  0  0  0  0  0  0  0999 V2000
   12.4624   52.8353   91.9824 C   0  0  0  0  0  0  0  0  0  0  0  0
   11.2787   52.4975   91.8856 O   0  0  0  0  0  0  0  0  0  0  0  0
   13.0220   53.7286   91.0953 N   0  0  0  0  0  0  0  0  0  0  0  0
   14.3661   54.2817   91.1178 C   0  0  0  0  0  0  0  0  0  0  0  0
   14.4750   55.1027   89.8305 C   0  0  0  0  0  0  0  0  0  0  0  0
   15.2868   56.2533   89.9737 O   0  0  0  0  0  0  0  0  0  0  0  0
   13.0269   55.5133   89.5638 C   0  0  0  0  0  0  0  0  0  0  0  0
   12.2405   54.2789   89.9938 C   0  0  0  0  0  0  0  0  0  0  0  0
   14.9297   56.8151   90.6792 H   0  0  0  0  0  0  0  0  0  0  0  0
   12.7360   49.9027   92.9900 C   0  0  0  0  0  0  0  0  0  0  0  0
   13.8732   50.8309   92.5480 C   0  0  0  0  0  0  0  0  0  0  0  0
   13.4094   52.2029   93.0279 C   0  0  0  0  0  0  0  0  0  0  0  0
   12.7033   51.9081   94.2693 N   0  0  0  0  0  0  0  0  0  0  0  0
   12.4641   52.8871   95.2004 C   0  0  0  0  0  0  0  0  0  0  0  0
   11.6858   52.4754   96.4225 C   0  0  0  0  0  0  0  0  0  0  0  0
   12.8610   54.0430   95.0541 O   0  0  0  0  0  0  0  0  0  0  0  0
   12.2998   50.5119   94.3295 C   0  0  0  0  0  0  0  0  0  0  0  0
   14.4812   48.5343   93.8152 C   0  0  0  0  0  0  0  0  0  0  0  0
   13.2423   48.5775   93.1172 O   0  0  0  0  0  0  0  0  0  0  0  0
   12.1532   53.2710   88.8272 C   0  0  0  0  0  0  0  0  0  0  0  0
   12.8704   53.3329   87.8297 O   0  0  0  0  0  0  0  0  0  0  0  0
   11.1480   52.3363   88.9745 N   0  0  0  0  0  0  0  0  0  0  0  0
   10.6618   52.2836   89.8289 H   0  0  0  0  0  0  0  0  0  0  0  0
   10.7936   51.4344   87.9045 C   0  0  0  0  0  0  0  0  0  0  0  0
   11.5499   50.1370   88.0357 C   0  0  0  0  0  0  0  0  0  0  0  0
   12.1426   49.7860   89.2566 C   0  0  0  0  0  0  0  0  0  0  0  0
   12.8725   48.6010   89.3779 C   0  0  0  0  0  0  0  0  0  0  0  0
   13.0279   47.7469   88.2792 C   0  0  0  0  0  0  0  0  0  0  0  0
   12.4434   48.1016   87.0570 C   0  0  0  0  0  0  0  0  0  0  0  0
   11.7130   49.2872   86.9344 C   0  0  0  0  0  0  0  0  0  0  0  0
   13.7919   46.5072   88.3949 C   0  0  0  0  0  0  0  0  0  0  0  0
   13.1547   45.1839   89.2893 S   0  0  0  0  0  0  0  0  0  0  0  0
   14.5424   44.2652   88.8936 C   0  0  0  0  0  0  0  0  0  0  0  0
   15.4438   44.8649   88.1488 N   0  0  0  0  0  0  0  0  0  0  0  0
   15.0252   46.1573   87.8616 C   0  0  0  0  0  0  0  0  0  0  0  0
   15.9190   47.0168   87.0403 C   0  0  0  0  0  0  0  0  0  0  0  0
 18 19  1  0
 10 19  1  0
 10 11  1  0
 11 12  1  0
 12  1  1  0
  1  2  2  0
  1  3  1  0
  3  4  1  0
  4  5  1  0
  5  6  1  0
  5  7  1  0
  7  8  1  0
  8 20  1  0
 20 21  2  0
 20 22  1  0
 22 24  1  0
 24 25  1  0
 25 26  2  0
 26 27  1  0
 27 28  2  0
 28 31  1  0
 31 32  1  0
 32 33  1  0
 33 34  2  0
 34 35  1  0
 35 36  1  0
 28 29  1  0
 29 30  2  0
 12 13  1  0
 13 14  1  0
 14 15  1  0
 14 16  2  0
 13 17  1  0
 17 10  1  0
  8  3  1  0
 30 25  1  0
 35 31  2  0
  6  9  1  0
 22 23  1  0
M  END
> <minimizedAffinity>
-6.88701

> <CNNscore>
0.7174947858

> <CNNaffinity>
5.7309012413

> <CNN_VS>
4.1118917465

> <CNNaffinity_variance>
0.3573613465

$$$$



 36 39  0  0  0  0  0  0  0  0999 V2000
    9.0530   52.4544   86.6495 C   0  0  0  0  0  0  0  0  0  0  0  0
    9.2301   53.6525   86.4097 O   0  0  0  0  0  0  0  0  0  0  0  0
    9.5030   51.8897   87.8229 N   0  0  0  0  0  0  0  0  0  0  0  0
    9.3093   50.5255   88.2858 C   0  0  0  0  0  0  0  0  0  0  0  0
   10.1318   50.4265   89.5729 C   0  0  0  0  0  0  0  0  0  0  0  0
    9.5520   49.5672   90.5367 O   0  0  0  0  0  0  0  0  0  0  0  0
   10.1340   51.8656   90.0883 C   0  0  0  0  0  0  0  0  0  0  0  0
   10.2317   52.6844   88.8048 C   0  0  0  0  0  0  0  0  0  0  0  0
    8.6597   49.8798   90.7535 H   0  0  0  0  0  0  0  0  0  0  0  0
    9.9927   49.6933   85.5614 C   0  0  0  0  0  0  0  0  0  0  0  0
    8.5898   50.0520   86.0648 C   0  0  0  0  0  0  0  0  0  0  0  0
    8.4172   51.4992   85.6135 C   0  0  0  0  0  0  0  0  0  0  0  0
    9.1323   51.5469   84.3435 N   0  0  0  0  0  0  0  0  0  0  0  0
    8.9026   52.5501   83.4361 C   0  0  0  0  0  0  0  0  0  0  0  0
    9.7328   52.5216   82.1796 C   0  0  0  0  0  0  0  0  0  0  0  0
    8.0644   53.4305   83.6292 O   0  0  0  0  0  0  0  0  0  0  0  0
   10.0805   50.4498   84.2289 C   0  0  0  0  0  0  0  0  0  0  0  0
   11.0430   47.9001   84.4301 C   0  0  0  0  0  0  0  0  0  0  0  0
   10.0831   48.2801   85.4088 O   0  0  0  0  0  0  0  0  0  0  0  0
   11.7099   52.8473   88.3893 C   0  0  0  0  0  0  0  0  0  0  0  0
   12.6516   52.5693   89.1304 O   0  0  0  0  0  0  0  0  0  0  0  0
   11.8770   53.4006   87.1357 N   0  0  0  0  0  0  0  0  0  0  0  0
   11.0908   53.5251   86.5563 H   0  0  0  0  0  0  0  0  0  0  0  0
   13.1779   53.8006   86.6546 C   0  0  0  0  0  0  0  0  0  0  0  0
   13.4633   53.1676   85.3165 C   0  0  0  0  0  0  0  0  0  0  0  0
   12.6483   52.1325   84.8373 C   0  0  0  0  0  0  0  0  0  0  0  0
   12.9248   51.5188   83.6131 C   0  0  0  0  0  0  0  0  0  0  0  0
   14.0246   51.9248   82.8474 C   0  0  0  0  0  0  0  0  0  0  0  0
   14.8440   52.9527   83.3300 C   0  0  0  0  0  0  0  0  0  0  0  0
   14.5685   53.5676   84.5548 C   0  0  0  0  0  0  0  0  0  0  0  0
   14.3240   51.2871   81.5676 C   0  0  0  0  0  0  0  0  0  0  0  0
   15.6884   51.7939   80.6519 S   0  0  0  0  0  0  0  0  0  0  0  0
   15.3199   50.6109   79.4725 C   0  0  0  0  0  0  0  0  0  0  0  0
   14.2611   49.8681   79.7051 N   0  0  0  0  0  0  0  0  0  0  0  0
   13.6768   50.2530   80.9045 C   0  0  0  0  0  0  0  0  0  0  0  0
   12.4453   49.5438   81.3431 C   0  0  0  0  0  0  0  0  0  0  0  0
 18 19  1  0
 10 19  1  0
 10 11  1  0
 11 12  1  0
 12  1  1  0
  1  2  2  0
  1  3  1  0
  3  4  1  0
  4  5  1  0
  5  6  1  0
  5  7  1  0
  7  8  1  0
  8 20  1  0
 20 21  2  0
 20 22  1  0
 22 24  1  0
 24 25  1  0
 25 26  2  0
 26 27  1  0
 27 28  2  0
 28 31  1  0
 31 32  1  0
 32 33  1  0
 33 34  2  0
 34 35  1  0
 35 36  1  0
 28 29  1  0
 29 30  2  0
 12 13  1  0
 13 14  1  0
 14 15  1  0
 14 16  2  0
 13 17  1  0
 17 10  1  0
  8  3  1  0
 30 25  1  0
 35 31  2  0
  6  9  1  0
 22 23  1  0
M  END
> <minimizedAffinity>
-8.26808

> <CNNscore>
0.5439714789

> <CNNaffinity>
6.2016768456

> <CNN_VS>
3.3735353947

> <CNNaffinity_variance>
0.6167958975

$$$$



 36 39  0  0  0  0  0  0  0  0999 V2000
   11.1498   51.6856   90.0717 C   0  0  0  0  0  0  0  0  0  0  0  0
   12.0545   51.5695   89.2396 O   0  0  0  0  0  0  0  0  0  0  0  0
    9.9550   51.0162   89.9216 N   0  0  0  0  0  0  0  0  0  0  0  0
    8.8298   50.9863   90.8414 C   0  0  0  0  0  0  0  0  0  0  0  0
    7.7399   50.2043   90.1041 C   0  0  0  0  0  0  0  0  0  0  0  0
    6.9302   49.4311   90.9700 O   0  0  0  0  0  0  0  0  0  0  0  0
    8.5426   49.2880   89.1805 C   0  0  0  0  0  0  0  0  0  0  0  0
    9.7102   50.1735   88.7568 C   0  0  0  0  0  0  0  0  0  0  0  0
    7.4872   48.8098   91.4646 H   0  0  0  0  0  0  0  0  0  0  0  0
   13.1102   54.0406   90.6205 C   0  0  0  0  0  0  0  0  0  0  0  0
   11.5840   54.0651   90.7625 C   0  0  0  0  0  0  0  0  0  0  0  0
   11.2583   52.6620   91.2654 C   0  0  0  0  0  0  0  0  0  0  0  0
   12.3970   52.3323   92.1146 N   0  0  0  0  0  0  0  0  0  0  0  0
   12.3202   51.3301   93.0486 C   0  0  0  0  0  0  0  0  0  0  0  0
   13.5732   51.0488   93.8358 C   0  0  0  0  0  0  0  0  0  0  0  0
   11.2867   50.6898   93.2406 O   0  0  0  0  0  0  0  0  0  0  0  0
   13.5484   53.1643   91.8018 C   0  0  0  0  0  0  0  0  0  0  0  0
   14.5414   55.6680   89.6707 C   0  0  0  0  0  0  0  0  0  0  0  0
   13.6046   55.3740   90.7001 O   0  0  0  0  0  0  0  0  0  0  0  0
    9.3120   51.0301   87.5353 C   0  0  0  0  0  0  0  0  0  0  0  0
    8.4661   50.6786   86.7141 O   0  0  0  0  0  0  0  0  0  0  0  0
   10.0434   52.1942   87.4107 N   0  0  0  0  0  0  0  0  0  0  0  0
   10.6468   52.4635   88.1406 H   0  0  0  0  0  0  0  0  0  0  0  0
    9.9439   53.0258   86.2349 C   0  0  0  0  0  0  0  0  0  0  0  0
   10.7957   52.4703   85.1221 C   0  0  0  0  0  0  0  0  0  0  0  0
   12.1916   52.4428   85.2484 C   0  0  0  0  0  0  0  0  0  0  0  0
   12.9901   51.9594   84.2089 C   0  0  0  0  0  0  0  0  0  0  0  0
   12.4081   51.4992   83.0213 C   0  0  0  0  0  0  0  0  0  0  0  0
   11.0142   51.5349   82.8914 C   0  0  0  0  0  0  0  0  0  0  0  0
   10.2142   52.0184   83.9308 C   0  0  0  0  0  0  0  0  0  0  0  0
   13.2345   50.9950   81.9273 C   0  0  0  0  0  0  0  0  0  0  0  0
   12.5492   49.9595   80.7377 S   0  0  0  0  0  0  0  0  0  0  0  0
   14.0566   49.9108   79.9305 C   0  0  0  0  0  0  0  0  0  0  0  0
   15.0309   50.6037   80.4760 N   0  0  0  0  0  0  0  0  0  0  0  0
   14.5707   51.2261   81.6288 C   0  0  0  0  0  0  0  0  0  0  0  0
   15.5309   52.0492   82.4114 C   0  0  0  0  0  0  0  0  0  0  0  0
 18 19  1  0
 10 19  1  0
 10 11  1  0
 11 12  1  0
 12  1  1  0
  1  2  2  0
  1  3  1  0
  3  4  1  0
  4  5  1  0
  5  6  1  0
  5  7  1  0
  7  8  1  0
  8 20  1  0
 20 21  2  0
 20 22  1  0
 22 24  1  0
 24 25  1  0
 25 26  2  0
 26 27  1  0
 27 28  2  0
 28 31  1  0
 31 32  1  0
 32 33  1  0
 33 34  2  0
 34 35  1  0
 35 36  1  0
 28 29  1  0
 29 30  2  0
 12 13  1  0
 13 14  1  0
 14 15  1  0
 14 16  2  0
 13 17  1  0
 17 10  1  0
  8  3  1  0
 30 25  1  0
 35 31  2  0
  6  9  1  0
 22 23  1  0
M  END
> <minimizedAffinity>
-7.36258

> <CNNscore>
0.5430132151

> <CNNaffinity>
6.4255180359

> <CNN_VS>
3.4891412258

> <CNNaffinity_variance>
0.2073408365

$$$$



 36 39  0  0  0  0  0  0  0  0999 V2000
   11.8793   54.2783   92.9562 C   0  0  0  0  0  0  0  0  0  0  0  0
   10.7088   53.8893   92.9004 O   0  0  0  0  0  0  0  0  0  0  0  0
   12.6191   54.4742   91.8106 N   0  0  0  0  0  0  0  0  0  0  0  0
   13.9712   54.9969   91.7028 C   0  0  0  0  0  0  0  0  0  0  0  0
   14.3255   54.8677   90.2193 C   0  0  0  0  0  0  0  0  0  0  0  0
   15.1665   55.9083   89.7574 O   0  0  0  0  0  0  0  0  0  0  0  0
   12.9618   54.9532   89.5338 C   0  0  0  0  0  0  0  0  0  0  0  0
   12.0515   54.1969   90.4962 C   0  0  0  0  0  0  0  0  0  0  0  0
   14.7344   56.7638   89.9072 H   0  0  0  0  0  0  0  0  0  0  0  0
   12.0766   52.4339   95.4560 C   0  0  0  0  0  0  0  0  0  0  0  0
   13.2349   53.1437   94.7458 C   0  0  0  0  0  0  0  0  0  0  0  0
   12.6145   54.4655   94.3031 C   0  0  0  0  0  0  0  0  0  0  0  0
   11.6780   54.7778   95.3764 N   0  0  0  0  0  0  0  0  0  0  0  0
   11.2010   56.0519   95.5548 C   0  0  0  0  0  0  0  0  0  0  0  0
   10.2038   56.2457   96.6669 C   0  0  0  0  0  0  0  0  0  0  0  0
   11.5632   56.9930   94.8491 O   0  0  0  0  0  0  0  0  0  0  0  0
   11.3391   53.5902   96.1449 C   0  0  0  0  0  0  0  0  0  0  0  0
   14.0277   51.4076   96.3155 C   0  0  0  0  0  0  0  0  0  0  0  0
   12.6084   51.4840   96.3745 O   0  0  0  0  0  0  0  0  0  0  0  0
   12.0933   52.6840   90.1898 C   0  0  0  0  0  0  0  0  0  0  0  0
   12.7163   51.8755   90.8765 O   0  0  0  0  0  0  0  0  0  0  0  0
   11.4256   52.3326   89.0338 N   0  0  0  0  0  0  0  0  0  0  0  0
   10.8769   53.0067   88.5715 H   0  0  0  0  0  0  0  0  0  0  0  0
   11.5132   50.9993   88.4874 C   0  0  0  0  0  0  0  0  0  0  0  0
   11.5917   51.0498   86.9827 C   0  0  0  0  0  0  0  0  0  0  0  0
   11.5869   49.8636   86.2357 C   0  0  0  0  0  0  0  0  0  0  0  0
   11.6917   49.9001   84.8430 C   0  0  0  0  0  0  0  0  0  0  0  0
   11.8086   51.1233   84.1714 C   0  0  0  0  0  0  0  0  0  0  0  0
   11.8224   52.3079   84.9181 C   0  0  0  0  0  0  0  0  0  0  0  0
   11.7177   52.2726   86.3116 C   0  0  0  0  0  0  0  0  0  0  0  0
   11.9220   51.1719   82.7158 C   0  0  0  0  0  0  0  0  0  0  0  0
   13.3661   50.6422   81.9470 S   0  0  0  0  0  0  0  0  0  0  0  0
   12.6643   50.9816   80.4242 C   0  0  0  0  0  0  0  0  0  0  0  0
   11.4400   51.4587   80.4416 N   0  0  0  0  0  0  0  0  0  0  0  0
   11.0057   51.5784   81.7551 C   0  0  0  0  0  0  0  0  0  0  0  0
    9.6425   52.1226   81.9952 C   0  0  0  0  0  0  0  0  0  0  0  0
 18 19  1  0
 10 19  1  0
 10 11  1  0
 11 12  1  0
 12  1  1  0
  1  2  2  0
  1  3  1  0
  3  4  1  0
  4  5  1  0
  5  6  1  0
  5  7  1  0
  7  8  1  0
  8 20  1  0
 20 21  2  0
 20 22  1  0
 22 24  1  0
 24 25  1  0
 25 26  2  0
 26 27  1  0
 27 28  2  0
 28 31  1  0
 31 32  1  0
 32 33  1  0
 33 34  2  0
 34 35  1  0
 35 36  1  0
 28 29  1  0
 29 30  2  0
 12 13  1  0
 13 14  1  0
 14 15  1  0
 14 16  2  0
 13 17  1  0
 17 10  1  0
  8  3  1  0
 30 25  1  0
 35 31  2  0
  6  9  1  0
 22 23  1  0
M  END
> <minimizedAffinity>
-8.34221

> <CNNscore>
0.4461508989

> <CNNaffinity>
5.8498835564

> <CNN_VS>
2.6099307537

> <CNNaffinity_variance>
0.5445520878

$$$$



 36 39  0  0  0  0  0  0  0  0999 V2000
   11.8334   54.1304   93.1560 C   0  0  0  0  0  0  0  0  0  0  0  0
   10.6825   53.6877   93.0936 O   0  0  0  0  0  0  0  0  0  0  0  0
   12.5621   54.3809   92.0139 N   0  0  0  0  0  0  0  0  0  0  0  0
   13.8880   54.9684   91.9151 C   0  0  0  0  0  0  0  0  0  0  0  0
   14.2465   54.8820   90.4294 C   0  0  0  0  0  0  0  0  0  0  0  0
   15.0371   55.9690   89.9857 O   0  0  0  0  0  0  0  0  0  0  0  0
   12.8796   54.9152   89.7457 C   0  0  0  0  0  0  0  0  0  0  0  0
   12.0068   54.1001   90.6950 C   0  0  0  0  0  0  0  0  0  0  0  0
   14.5653   56.8004   90.1506 H   0  0  0  0  0  0  0  0  0  0  0  0
   11.9135   52.3640   95.7180 C   0  0  0  0  0  0  0  0  0  0  0  0
   13.1124   52.9947   95.0005 C   0  0  0  0  0  0  0  0  0  0  0  0
   12.5603   54.3283   94.5059 C   0  0  0  0  0  0  0  0  0  0  0  0
   11.6267   54.7200   95.5554 N   0  0  0  0  0  0  0  0  0  0  0  0
   11.2081   56.0202   95.6850 C   0  0  0  0  0  0  0  0  0  0  0  0
   10.2077   56.2976   96.7763 C   0  0  0  0  0  0  0  0  0  0  0  0
   11.6227   56.9191   94.9535 O   0  0  0  0  0  0  0  0  0  0  0  0
   11.2230   53.5760   96.3581 C   0  0  0  0  0  0  0  0  0  0  0  0
   11.5653   50.2646   96.7525 C   0  0  0  0  0  0  0  0  0  0  0  0
   12.3889   51.4219   96.6746 O   0  0  0  0  0  0  0  0  0  0  0  0
   12.1195   52.5966   90.3620 C   0  0  0  0  0  0  0  0  0  0  0  0
   12.7615   51.8020   91.0475 O   0  0  0  0  0  0  0  0  0  0  0  0
   11.4922   52.2395   89.1854 N   0  0  0  0  0  0  0  0  0  0  0  0
   10.9253   52.8986   88.7233 H   0  0  0  0  0  0  0  0  0  0  0  0
   11.6481   50.9217   88.6168 C   0  0  0  0  0  0  0  0  0  0  0  0
   10.5438   50.0098   89.0875 C   0  0  0  0  0  0  0  0  0  0  0  0
    9.2373   50.1780   88.6081 C   0  0  0  0  0  0  0  0  0  0  0  0
    8.2018   49.3580   89.0634 C   0  0  0  0  0  0  0  0  0  0  0  0
    8.4523   48.3578   90.0108 C   0  0  0  0  0  0  0  0  0  0  0  0
    9.7556   48.1954   90.4966 C   0  0  0  0  0  0  0  0  0  0  0  0
   10.7925   49.0153   90.0418 C   0  0  0  0  0  0  0  0  0  0  0  0
    7.3759   47.4974   90.4956 C   0  0  0  0  0  0  0  0  0  0  0  0
    6.0844   48.1682   91.4117 S   0  0  0  0  0  0  0  0  0  0  0  0
    5.3618   46.6203   91.5020 C   0  0  0  0  0  0  0  0  0  0  0  0
    6.0054   45.6424   90.9049 N   0  0  0  0  0  0  0  0  0  0  0  0
    7.1687   46.1347   90.3283 C   0  0  0  0  0  0  0  0  0  0  0  0
    8.0563   45.1777   89.6153 C   0  0  0  0  0  0  0  0  0  0  0  0
 18 19  1  0
 10 19  1  0
 10 11  1  0
 11 12  1  0
 12  1  1  0
  1  2  2  0
  1  3  1  0
  3  4  1  0
  4  5  1  0
  5  6  1  0
  5  7  1  0
  7  8  1  0
  8 20  1  0
 20 21  2  0
 20 22  1  0
 22 24  1  0
 24 25  1  0
 25 26  2  0
 26 27  1  0
 27 28  2  0
 28 31  1  0
 31 32  1  0
 32 33  1  0
 33 34  2  0
 34 35  1  0
 35 36  1  0
 28 29  1  0
 29 30  2  0
 12 13  1  0
 13 14  1  0
 14 15  1  0
 14 16  2  0
 13 17  1  0
 17 10  1  0
  8  3  1  0
 30 25  1  0
 35 31  2  0
  6  9  1  0
 22 23  1  0
M  END
> <minimizedAffinity>
-5.98273

> <CNNscore>
0.4011534154

> <CNNaffinity>
6.0137705803

> <CNN_VS>
2.4124445915

> <CNNaffinity_variance>
0.1623854041

$$$$



 36 39  0  0  0  0  0  0  0  0999 V2000
   11.6241   51.7392   91.0865 C   0  0  0  0  0  0  0  0  0  0  0  0
   11.9375   50.9834   92.0112 O   0  0  0  0  0  0  0  0  0  0  0  0
   12.3000   52.9206   90.8733 N   0  0  0  0  0  0  0  0  0  0  0  0
   12.1065   53.8744   89.7936 C   0  0  0  0  0  0  0  0  0  0  0  0
   13.0287   55.0474   90.1351 C   0  0  0  0  0  0  0  0  0  0  0  0
   13.5734   55.6761   88.9900 O   0  0  0  0  0  0  0  0  0  0  0  0
   14.1408   54.3825   90.9463 C   0  0  0  0  0  0  0  0  0  0  0  0
   13.3874   53.3305   91.7544 C   0  0  0  0  0  0  0  0  0  0  0  0
   14.0680   55.0250   88.4681 H   0  0  0  0  0  0  0  0  0  0  0  0
   11.3818   51.4211   87.9994 C   0  0  0  0  0  0  0  0  0  0  0  0
   10.7819   50.4986   89.0667 C   0  0  0  0  0  0  0  0  0  0  0  0
   10.3988   51.4629   90.1853 C   0  0  0  0  0  0  0  0  0  0  0  0
    9.9875   52.6659   89.4710 N   0  0  0  0  0  0  0  0  0  0  0  0
    9.2189   53.6258   90.0797 C   0  0  0  0  0  0  0  0  0  0  0  0
    8.8942   54.8460   89.2584 C   0  0  0  0  0  0  0  0  0  0  0  0
    8.8112   53.5050   91.2347 O   0  0  0  0  0  0  0  0  0  0  0  0
   10.5189   52.6848   88.1171 C   0  0  0  0  0  0  0  0  0  0  0  0
   11.8726   49.4972   86.7122 C   0  0  0  0  0  0  0  0  0  0  0  0
   11.2760   50.7886   86.7276 O   0  0  0  0  0  0  0  0  0  0  0  0
   12.8338   53.9543   93.0539 C   0  0  0  0  0  0  0  0  0  0  0  0
   13.0374   55.1231   93.3790 O   0  0  0  0  0  0  0  0  0  0  0  0
   12.1489   53.0598   93.8517 N   0  0  0  0  0  0  0  0  0  0  0  0
   11.9461   52.1617   93.5029 H   0  0  0  0  0  0  0  0  0  0  0  0
   11.7233   53.4108   95.1857 C   0  0  0  0  0  0  0  0  0  0  0  0
   12.6174   52.7634   96.2124 C   0  0  0  0  0  0  0  0  0  0  0  0
   13.7992   52.1224   95.8152 C   0  0  0  0  0  0  0  0  0  0  0  0
   14.6170   51.4922   96.7563 C   0  0  0  0  0  0  0  0  0  0  0  0
   14.2658   51.4864   98.1118 C   0  0  0  0  0  0  0  0  0  0  0  0
   13.0808   52.1189   98.5077 C   0  0  0  0  0  0  0  0  0  0  0  0
   12.2617   52.7498   97.5669 C   0  0  0  0  0  0  0  0  0  0  0  0
   15.1125   50.8274   99.1032 C   0  0  0  0  0  0  0  0  0  0  0  0
   16.0359   51.7676  100.2078 S   0  0  0  0  0  0  0  0  0  0  0  0
   16.6142   50.3284  100.9292 C   0  0  0  0  0  0  0  0  0  0  0  0
   16.1754   49.2023  100.4132 N   0  0  0  0  0  0  0  0  0  0  0  0
   15.3160   49.4777   99.3579 C   0  0  0  0  0  0  0  0  0  0  0  0
   14.7217   48.3306   98.6210 C   0  0  0  0  0  0  0  0  0  0  0  0
 18 19  1  0
 10 19  1  0
 10 11  1  0
 11 12  1  0
 12  1  1  0
  1  2  2  0
  1  3  1  0
  3  4  1  0
  4  5  1  0
  5  6  1  0
  5  7  1  0
  7  8  1  0
  8 20  1  0
 20 21  2  0
 20 22  1  0
 22 24  1  0
 24 25  1  0
 25 26  2  0
 26 27  1  0
 27 28  2  0
 28 31  1  0
 31 32  1  0
 32 33  1  0
 33 34  2  0
 34 35  1  0
 35 36  1  0
 28 29  1  0
 29 30  2  0
 12 13  1  0
 13 14  1  0
 14 15  1  0
 14 16  2  0
 13 17  1  0
 17 10  1  0
  8  3  1  0
 30 25  1  0
 35 31  2  0
  6  9  1  0
 22 23  1  0
M  END
> <minimizedAffinity>
-6.13168

> <CNNscore>
0.3753461838

> <CNNaffinity>
5.6277060509

> <CNN_VS>
2.1123380661

> <CNNaffinity_variance>
0.0826627091

$$$$



 36 39  0  0  0  0  0  0  0  0999 V2000
   10.8075   50.7490   88.3659 C   0  0  0  0  0  0  0  0  0  0  0  0
   10.4099   51.2268   87.2991 O   0  0  0  0  0  0  0  0  0  0  0  0
   11.2236   51.5613   89.3979 N   0  0  0  0  0  0  0  0  0  0  0  0
   11.6434   51.1621   90.7311 C   0  0  0  0  0  0  0  0  0  0  0  0
   12.1176   52.4558   91.3978 C   0  0  0  0  0  0  0  0  0  0  0  0
   11.8569   52.4907   92.7886 O   0  0  0  0  0  0  0  0  0  0  0  0
   11.2958   53.5291   90.6839 C   0  0  0  0  0  0  0  0  0  0  0  0
   11.2373   53.0121   89.2499 C   0  0  0  0  0  0  0  0  0  0  0  0
   10.9049   52.3851   92.9418 H   0  0  0  0  0  0  0  0  0  0  0  0
   12.4133   48.6197   86.7604 C   0  0  0  0  0  0  0  0  0  0  0  0
   12.4011   48.8045   88.2821 C   0  0  0  0  0  0  0  0  0  0  0  0
   10.9630   49.2246   88.5706 C   0  0  0  0  0  0  0  0  0  0  0  0
   10.1871   48.4784   87.5869 N   0  0  0  0  0  0  0  0  0  0  0  0
    8.8393   48.2785   87.7485 C   0  0  0  0  0  0  0  0  0  0  0  0
    8.1344   47.5331   86.6456 C   0  0  0  0  0  0  0  0  0  0  0  0
    8.2299   48.6826   88.7386 O   0  0  0  0  0  0  0  0  0  0  0  0
   11.0193   48.0443   86.4757 C   0  0  0  0  0  0  0  0  0  0  0  0
   13.2288   46.4008   86.8604 C   0  0  0  0  0  0  0  0  0  0  0  0
   13.4679   47.7288   86.4100 O   0  0  0  0  0  0  0  0  0  0  0  0
   12.4871   53.4709   88.4678 C   0  0  0  0  0  0  0  0  0  0  0  0
   13.5051   53.8934   89.0142 O   0  0  0  0  0  0  0  0  0  0  0  0
   12.3308   53.4300   87.0968 N   0  0  0  0  0  0  0  0  0  0  0  0
   11.5277   53.0057   86.7168 H   0  0  0  0  0  0  0  0  0  0  0  0
   13.3176   53.9950   86.2076 C   0  0  0  0  0  0  0  0  0  0  0  0
   13.4756   53.1348   84.9797 C   0  0  0  0  0  0  0  0  0  0  0  0
   14.5760   53.3134   84.1298 C   0  0  0  0  0  0  0  0  0  0  0  0
   14.7132   52.5424   82.9728 C   0  0  0  0  0  0  0  0  0  0  0  0
   13.7499   51.5818   82.6411 C   0  0  0  0  0  0  0  0  0  0  0  0
   12.6460   51.4094   83.4853 C   0  0  0  0  0  0  0  0  0  0  0  0
   12.5075   52.1803   84.6431 C   0  0  0  0  0  0  0  0  0  0  0  0
   13.8826   50.7730   81.4319 C   0  0  0  0  0  0  0  0  0  0  0  0
   12.7492   49.5217   81.1048 S   0  0  0  0  0  0  0  0  0  0  0  0
   13.5672   49.1813   79.6414 C   0  0  0  0  0  0  0  0  0  0  0  0
   14.6180   49.9244   79.3762 N   0  0  0  0  0  0  0  0  0  0  0  0
   14.8124   50.8390   80.4028 C   0  0  0  0  0  0  0  0  0  0  0  0
   15.9702   51.7674   80.3039 C   0  0  0  0  0  0  0  0  0  0  0  0
 18 19  1  0
 10 19  1  0
 10 11  1  0
 11 12  1  0
 12  1  1  0
  1  2  2  0
  1  3  1  0
  3  4  1  0
  4  5  1  0
  5  6  1  0
  5  7  1  0
  7  8  1  0
  8 20  1  0
 20 21  2  0
 20 22  1  0
 22 24  1  0
 24 25  1  0
 25 26  2  0
 26 27  1  0
 27 28  2  0
 28 31  1  0
 31 32  1  0
 32 33  1  0
 33 34  2  0
 34 35  1  0
 35 36  1  0
 28 29  1  0
 29 30  2  0
 12 13  1  0
 13 14  1  0
 14 15  1  0
 14 16  2  0
 13 17  1  0
 17 10  1  0
  8  3  1  0
 30 25  1  0
 35 31  2  0
  6  9  1  0
 22 23  1  0
M  END
> <minimizedAffinity>
-8.47920

> <CNNscore>
0.3301029205

> <CNNaffinity>
6.1435317993

> <CNN_VS>
2.0279977322

> <CNNaffinity_variance>
0.2257789969

$$$$



 36 39  0  0  0  0  0  0  0  0999 V2000
   11.3565   54.0950   93.5599 C   0  0  0  0  0  0  0  0  0  0  0  0
   10.1898   53.7104   93.4357 O   0  0  0  0  0  0  0  0  0  0  0  0
   12.1880   54.2091   92.4673 N   0  0  0  0  0  0  0  0  0  0  0  0
   13.5504   54.7149   92.4346 C   0  0  0  0  0  0  0  0  0  0  0  0
   14.0209   54.4845   90.9963 C   0  0  0  0  0  0  0  0  0  0  0  0
   14.9081   55.4866   90.5359 O   0  0  0  0  0  0  0  0  0  0  0  0
   12.7175   54.5325   90.1988 C   0  0  0  0  0  0  0  0  0  0  0  0
   11.7242   53.8480   91.1327 C   0  0  0  0  0  0  0  0  0  0  0  0
   14.4754   56.3528   90.5934 H   0  0  0  0  0  0  0  0  0  0  0  0
   10.9458   52.6879   96.3061 C   0  0  0  0  0  0  0  0  0  0  0  0
   12.2840   53.0473   95.6503 C   0  0  0  0  0  0  0  0  0  0  0  0
   11.9837   54.3672   94.9464 C   0  0  0  0  0  0  0  0  0  0  0  0
   11.0308   55.0186   95.8376 N   0  0  0  0  0  0  0  0  0  0  0  0
   10.8022   56.3698   95.7681 C   0  0  0  0  0  0  0  0  0  0  0  0
    9.7629   56.9238   96.7071 C   0  0  0  0  0  0  0  0  0  0  0  0
   11.4094   57.0986   94.9839 O   0  0  0  0  0  0  0  0  0  0  0  0
   10.3914   54.0572   96.7222 C   0  0  0  0  0  0  0  0  0  0  0  0
   10.3935   52.1543   98.5442 C   0  0  0  0  0  0  0  0  0  0  0  0
   11.1888   51.8237   97.4119 O   0  0  0  0  0  0  0  0  0  0  0  0
   11.7729   52.3178   90.9314 C   0  0  0  0  0  0  0  0  0  0  0  0
   12.8086   51.6601   91.0212 O   0  0  0  0  0  0  0  0  0  0  0  0
   10.5598   51.7659   90.5716 N   0  0  0  0  0  0  0  0  0  0  0  0
    9.7504   52.3258   90.5964 H   0  0  0  0  0  0  0  0  0  0  0  0
   10.4508   50.3866   90.1598 C   0  0  0  0  0  0  0  0  0  0  0  0
   10.8052   50.2416   88.7017 C   0  0  0  0  0  0  0  0  0  0  0  0
   10.1675   51.0353   87.7382 C   0  0  0  0  0  0  0  0  0  0  0  0
   10.4668   50.8849   86.3819 C   0  0  0  0  0  0  0  0  0  0  0  0
   11.4056   49.9341   85.9630 C   0  0  0  0  0  0  0  0  0  0  0  0
   12.0363   49.1349   86.9245 C   0  0  0  0  0  0  0  0  0  0  0  0
   11.7376   49.2845   88.2819 C   0  0  0  0  0  0  0  0  0  0  0  0
   11.7230   49.7669   84.5468 C   0  0  0  0  0  0  0  0  0  0  0  0
   11.2464   48.3357   83.7213 S   0  0  0  0  0  0  0  0  0  0  0  0
   11.9206   48.9594   82.2780 C   0  0  0  0  0  0  0  0  0  0  0  0
   12.4734   50.1487   82.3610 N   0  0  0  0  0  0  0  0  0  0  0  0
   12.3712   50.6196   83.6633 C   0  0  0  0  0  0  0  0  0  0  0  0
   12.9571   51.9507   83.9748 C   0  0  0  0  0  0  0  0  0  0  0  0
 18 19  1  0
 10 19  1  0
 10 11  1  0
 11 12  1  0
 12  1  1  0
  1  2  2  0
  1  3  1  0
  3  4  1  0
  4  5  1  0
  5  6  1  0
  5  7  1  0
  7  8  1  0
  8 20  1  0
 20 21  2  0
 20 22  1  0
 22 24  1  0
 24 25  1  0
 25 26  2  0
 26 27  1  0
 27 28  2  0
 28 31  1  0
 31 32  1  0
 32 33  1  0
 33 34  2  0
 34 35  1  0
 35 36  1  0
 28 29  1  0
 29 30  2  0
 12 13  1  0
 13 14  1  0
 14 15  1  0
 14 16  2  0
 13 17  1  0
 17 10  1  0
  8  3  1  0
 30 25  1  0
 35 31  2  0
  6  9  1  0
 22 23  1  0
M  END
> <minimizedAffinity>
-7.10456

> <CNNscore>
0.3160322309

> <CNNaffinity>
5.4537944794

> <CNN_VS>
1.7235748768

> <CNNaffinity_variance>
0.3666335046

$$$$



 36 39  0  0  0  0  0  0  0  0999 V2000
   11.0413   46.1950   87.7026 C   0  0  0  0  0  0  0  0  0  0  0  0
    9.8416   46.0466   87.4513 O   0  0  0  0  0  0  0  0  0  0  0  0
   11.4899   47.2886   88.4102 N   0  0  0  0  0  0  0  0  0  0  0  0
   12.8468   47.5687   88.8502 C   0  0  0  0  0  0  0  0  0  0  0  0
   12.7796   48.9688   89.4651 C   0  0  0  0  0  0  0  0  0  0  0  0
   13.6668   49.1389   90.5548 O   0  0  0  0  0  0  0  0  0  0  0  0
   11.3324   49.0603   89.9489 C   0  0  0  0  0  0  0  0  0  0  0  0
   10.5636   48.3225   88.8572 C   0  0  0  0  0  0  0  0  0  0  0  0
   13.4674   48.4815   91.2397 H   0  0  0  0  0  0  0  0  0  0  0  0
   13.0717   44.3434   89.1654 C   0  0  0  0  0  0  0  0  0  0  0  0
   12.1559   43.9592   87.9976 C   0  0  0  0  0  0  0  0  0  0  0  0
   12.1164   45.2294   87.1533 C   0  0  0  0  0  0  0  0  0  0  0  0
   13.4553   45.7851   87.3124 N   0  0  0  0  0  0  0  0  0  0  0  0
   13.9511   46.7085   86.4269 C   0  0  0  0  0  0  0  0  0  0  0  0
   15.3277   47.2461   86.7182 C   0  0  0  0  0  0  0  0  0  0  0  0
   13.3128   47.0834   85.4435 O   0  0  0  0  0  0  0  0  0  0  0  0
   14.1102   45.2557   88.4984 C   0  0  0  0  0  0  0  0  0  0  0  0
   14.9947   43.3412   90.1121 C   0  0  0  0  0  0  0  0  0  0  0  0
   13.6400   43.1599   89.7175 O   0  0  0  0  0  0  0  0  0  0  0  0
   10.2221   49.2884   87.7019 C   0  0  0  0  0  0  0  0  0  0  0  0
    9.9997   50.4865   87.8702 O   0  0  0  0  0  0  0  0  0  0  0  0
   10.1198   48.6696   86.4721 N   0  0  0  0  0  0  0  0  0  0  0  0
   10.3895   47.7269   86.3842 H   0  0  0  0  0  0  0  0  0  0  0  0
    9.6265   49.3731   85.3121 C   0  0  0  0  0  0  0  0  0  0  0  0
   10.7644   49.7383   84.3930 C   0  0  0  0  0  0  0  0  0  0  0  0
   11.5187   50.8960   84.6294 C   0  0  0  0  0  0  0  0  0  0  0  0
   12.5541   51.2588   83.7645 C   0  0  0  0  0  0  0  0  0  0  0  0
   12.8513   50.4736   82.6438 C   0  0  0  0  0  0  0  0  0  0  0  0
   12.0921   49.3219   82.4024 C   0  0  0  0  0  0  0  0  0  0  0  0
   11.0559   48.9579   83.2671 C   0  0  0  0  0  0  0  0  0  0  0  0
   13.9298   50.8462   81.7315 C   0  0  0  0  0  0  0  0  0  0  0  0
   13.9975   50.1637   80.1546 S   0  0  0  0  0  0  0  0  0  0  0  0
   15.3954   51.0936   79.8264 C   0  0  0  0  0  0  0  0  0  0  0  0
   15.8171   51.8720   80.7975 N   0  0  0  0  0  0  0  0  0  0  0  0
   14.9851   51.7326   81.9004 C   0  0  0  0  0  0  0  0  0  0  0  0
   15.3034   52.5193   83.1218 C   0  0  0  0  0  0  0  0  0  0  0  0
 18 19  1  0
 10 19  1  0
 10 11  1  0
 11 12  1  0
 12  1  1  0
  1  2  2  0
  1  3  1  0
  3  4  1  0
  4  5  1  0
  5  6  1  0
  5  7  1  0
  7  8  1  0
  8 20  1  0
 20 21  2  0
 20 22  1  0
 22 24  1  0
 24 25  1  0
 25 26  2  0
 26 27  1  0
 27 28  2  0
 28 31  1  0
 31 32  1  0
 32 33  1  0
 33 34  2  0
 34 35  1  0
 35 36  1  0
 28 29  1  0
 29 30  2  0
 12 13  1  0
 13 14  1  0
 14 15  1  0
 14 16  2  0
 13 17  1  0
 17 10  1  0
  8  3  1  0
 30 25  1  0
 35 31  2  0
  6  9  1  0
 22 23  1  0
M  END
> <minimizedAffinity>
-7.35494

> <CNNscore>
0.3103668392

> <CNNaffinity>
4.9453682899

> <CNN_VS>
1.5348783731

> <CNNaffinity_variance>
1.3475593328

$$$$
