


 29 30  0  0  0  0  0  0  0  0999 V2000
   39.3047   -1.0651   13.3132 C   0  0  0  0  0  0  0  0  0  0  0  0
   37.8422   -0.6458   13.3377 C   0  0  0  0  0  0  0  0  0  0  0  0
   37.1424   -1.2008   14.4486 O   0  0  0  0  0  0  0  0  0  0  0  0
   37.3529   -1.1016   11.9406 C   0  0  0  0  0  0  0  0  0  0  0  0
   38.5015   -1.1116   11.0666 O   0  0  0  0  0  0  0  0  0  0  0  0
   39.6560   -0.7633   11.8620 C   0  0  0  0  0  0  0  0  0  0  0  0
   37.2187   -2.1676   14.4285 H   0  0  0  0  0  0  0  0  0  0  0  0
   36.6741   -2.4015   11.9134 N   0  0  0  0  0  0  0  0  0  0  0  0
   37.2432   -3.5435   12.4437 C   0  0  0  0  0  0  0  0  0  0  0  0
   36.6168   -4.7221   12.4236 C   0  0  0  0  0  0  0  0  0  0  0  0
   35.2810   -4.8087   11.8161 C   0  0  0  0  0  0  0  0  0  0  0  0
   34.6574   -5.8624   11.8027 O   0  0  0  0  0  0  0  0  0  0  0  0
   34.7975   -3.6504   11.2829 N   0  0  0  0  0  0  0  0  0  0  0  0
   35.4109   -2.4290   11.3331 C   0  0  0  0  0  0  0  0  0  0  0  0
   34.8440   -1.4225   10.9060 O   0  0  0  0  0  0  0  0  0  0  0  0
   33.9296   -3.6976   10.8207 H   0  0  0  0  0  0  0  0  0  0  0  0
   40.8680   -1.5460   11.3663 C   0  0  0  0  0  0  0  0  0  0  0  0
   40.8445   -1.6214    9.9405 O   0  0  0  0  0  0  0  0  0  0  0  0
   40.0347   -2.0721    9.6539 H   0  0  0  0  0  0  0  0  0  0  0  0
   40.1592   -0.3153   14.1740 O   0  0  0  0  0  0  0  0  0  0  0  0
   39.5402    0.0615   15.4064 C   0  0  0  0  0  0  0  0  0  0  0  0
   40.2326   -0.6467   16.6141 C   0  0  0  0  0  0  0  0  0  0  0  0
   39.2580   -1.6787   17.1983 C   0  0  0  0  0  0  0  0  0  0  0  0
   41.4778   -1.3846   16.0797 C   0  0  0  0  0  0  0  0  0  0  0  0
   40.6221    0.4840   17.6224 C   0  0  0  0  0  0  0  0  0  0  0  0
   41.2073    1.5105   19.9064 C   0  0  0  0  0  0  0  0  0  0  0  0
   40.5416    0.3303   19.1740 C   0  0  0  0  0  0  0  0  0  0  0  0
   39.1174    0.1390   19.7055 C   0  0  0  0  0  0  0  0  0  0  0  0
   41.3512   -0.9389   19.5427 C   0  0  0  0  0  0  0  0  0  0  0  0
 26 27  1  0
 27 28  1  0
 27 29  1  0
 27 25  1  0
 25 22  1  0
 22 23  1  0
 22 24  1  0
 22 21  1  0
 21 20  1  0
  1 20  1  0
  1  2  1  0
  2  3  1  0
  2  4  1  0
  4  8  1  0
  8  9  1  0
  9 10  2  0
 10 11  1  0
 11 12  2  0
 11 13  1  0
 13 14  1  0
 14 15  2  0
  4  5  1  0
  5  6  1  0
  6 17  1  0
 17 18  1  0
  6  1  1  0
 14  8  1  0
  3  7  1  0
 13 16  1  0
 18 19  1  0
M  END
> <minimizedAffinity>
-5.49678

> <CNNscore>
0.6741728187

> <CNNaffinity>
4.9783258438

> <CNN_VS>
3.3562519550

> <CNNaffinity_variance>
0.0051865685

$$$$



 29 30  0  0  0  0  0  0  0  0999 V2000
   37.8223   -1.0473   13.6549 C   0  0  0  0  0  0  0  0  0  0  0  0
   36.9999   -1.1495   12.3787 C   0  0  0  0  0  0  0  0  0  0  0  0
   35.6158   -0.8994   12.6097 O   0  0  0  0  0  0  0  0  0  0  0  0
   37.3509   -2.5741   11.8825 C   0  0  0  0  0  0  0  0  0  0  0  0
   38.6571   -2.8995   12.4032 O   0  0  0  0  0  0  0  0  0  0  0  0
   39.0801   -1.7974   13.2357 C   0  0  0  0  0  0  0  0  0  0  0  0
   35.2828   -1.5173   13.2791 H   0  0  0  0  0  0  0  0  0  0  0  0
   36.3803   -3.6138   12.2408 N   0  0  0  0  0  0  0  0  0  0  0  0
   36.5328   -4.4138   13.3571 C   0  0  0  0  0  0  0  0  0  0  0  0
   35.6415   -5.3527   13.6828 C   0  0  0  0  0  0  0  0  0  0  0  0
   34.4623   -5.5434   12.8261 C   0  0  0  0  0  0  0  0  0  0  0  0
   33.6042   -6.3718   13.1032 O   0  0  0  0  0  0  0  0  0  0  0  0
   34.3957   -4.7424   11.7245 N   0  0  0  0  0  0  0  0  0  0  0  0
   35.2801   -3.7501   11.4018 C   0  0  0  0  0  0  0  0  0  0  0  0
   35.0763   -3.0163   10.4339 O   0  0  0  0  0  0  0  0  0  0  0  0
   33.6441   -4.8916   11.1063 H   0  0  0  0  0  0  0  0  0  0  0  0
   39.8776   -2.3338   14.4204 C   0  0  0  0  0  0  0  0  0  0  0  0
   39.5802   -3.7167   14.6168 O   0  0  0  0  0  0  0  0  0  0  0  0
   38.6328   -3.8213   14.7965 H   0  0  0  0  0  0  0  0  0  0  0  0
   38.1686    0.2807   14.0417 O   0  0  0  0  0  0  0  0  0  0  0  0
   38.6712    1.0764   12.9654 C   0  0  0  0  0  0  0  0  0  0  0  0
   39.6630    2.1611   13.4937 C   0  0  0  0  0  0  0  0  0  0  0  0
   40.7066    1.4744   14.3858 C   0  0  0  0  0  0  0  0  0  0  0  0
   40.3796    2.7807   12.2758 C   0  0  0  0  0  0  0  0  0  0  0  0
   38.7949    3.2194   14.2507 C   0  0  0  0  0  0  0  0  0  0  0  0
   38.3938    5.0403   12.4797 C   0  0  0  0  0  0  0  0  0  0  0  0
   37.7481    4.1441   13.5531 C   0  0  0  0  0  0  0  0  0  0  0  0
   36.5636    3.3891   12.9412 C   0  0  0  0  0  0  0  0  0  0  0  0
   37.1846    5.0890   14.6450 C   0  0  0  0  0  0  0  0  0  0  0  0
 26 27  1  0
 27 28  1  0
 27 29  1  0
 27 25  1  0
 25 22  1  0
 22 23  1  0
 22 24  1  0
 22 21  1  0
 21 20  1  0
  1 20  1  0
  1  2  1  0
  2  3  1  0
  2  4  1  0
  4  8  1  0
  8  9  1  0
  9 10  2  0
 10 11  1  0
 11 12  2  0
 11 13  1  0
 13 14  1  0
 14 15  2  0
  4  5  1  0
  5  6  1  0
  6 17  1  0
 17 18  1  0
  6  1  1  0
 14  8  1  0
  3  7  1  0
 13 16  1  0
 18 19  1  0
M  END
> <minimizedAffinity>
-5.94449

> <CNNscore>
0.6260530949

> <CNNaffinity>
5.2118110657

> <CNN_VS>
3.2628705502

> <CNNaffinity_variance>
0.2380484790

$$$$



 29 30  0  0  0  0  0  0  0  0999 V2000
   37.9490    0.9940   13.4902 C   0  0  0  0  0  0  0  0  0  0  0  0
   36.9326    0.8505   12.3669 C   0  0  0  0  0  0  0  0  0  0  0  0
   35.5933    0.8240   12.8541 O   0  0  0  0  0  0  0  0  0  0  0  0
   37.4150   -0.4397   11.6587 C   0  0  0  0  0  0  0  0  0  0  0  0
   38.8304   -0.5639   11.9120 O   0  0  0  0  0  0  0  0  0  0  0  0
   39.2133    0.5234   12.7826 C   0  0  0  0  0  0  0  0  0  0  0  0
   35.4964    0.1020   13.4946 H   0  0  0  0  0  0  0  0  0  0  0  0
   36.7120   -1.6651   12.0533 N   0  0  0  0  0  0  0  0  0  0  0  0
   37.1560   -2.4727   13.0829 C   0  0  0  0  0  0  0  0  0  0  0  0
   36.5071   -3.5823   13.4430 C   0  0  0  0  0  0  0  0  0  0  0  0
   35.2835   -3.9584   12.7203 C   0  0  0  0  0  0  0  0  0  0  0  0
   34.6399   -4.9510   13.0363 O   0  0  0  0  0  0  0  0  0  0  0  0
   34.9250   -3.1338   11.6951 N   0  0  0  0  0  0  0  0  0  0  0  0
   35.5575   -1.9734   11.3426 C   0  0  0  0  0  0  0  0  0  0  0  0
   35.0953   -1.2479   10.4612 O   0  0  0  0  0  0  0  0  0  0  0  0
   34.1410   -3.3972   11.1610 H   0  0  0  0  0  0  0  0  0  0  0  0
   40.2937    0.0443   13.7471 C   0  0  0  0  0  0  0  0  0  0  0  0
   39.6936   -0.6652   14.8313 O   0  0  0  0  0  0  0  0  0  0  0  0
   39.0825   -0.0780   15.3032 H   0  0  0  0  0  0  0  0  0  0  0  0
   38.1379    2.3259   13.9631 O   0  0  0  0  0  0  0  0  0  0  0  0
   38.1787    3.3022   12.9194 C   0  0  0  0  0  0  0  0  0  0  0  0
   39.1743    4.4521   13.2742 C   0  0  0  0  0  0  0  0  0  0  0  0
   40.5946    3.8714   13.3171 C   0  0  0  0  0  0  0  0  0  0  0  0
   39.1009    5.5057   12.1494 C   0  0  0  0  0  0  0  0  0  0  0  0
   38.6985    5.0384   14.6441 C   0  0  0  0  0  0  0  0  0  0  0  0
   37.6425    7.3551   14.2828 C   0  0  0  0  0  0  0  0  0  0  0  0
   37.4255    5.9260   14.8145 C   0  0  0  0  0  0  0  0  0  0  0  0
   36.1650    5.3315   14.1779 C   0  0  0  0  0  0  0  0  0  0  0  0
   37.1644    6.0501   16.3373 C   0  0  0  0  0  0  0  0  0  0  0  0
 26 27  1  0
 27 28  1  0
 27 29  1  0
 27 25  1  0
 25 22  1  0
 22 23  1  0
 22 24  1  0
 22 21  1  0
 21 20  1  0
  1 20  1  0
  1  2  1  0
  2  3  1  0
  2  4  1  0
  4  8  1  0
  8  9  1  0
  9 10  2  0
 10 11  1  0
 11 12  2  0
 11 13  1  0
 13 14  1  0
 14 15  2  0
  4  5  1  0
  5  6  1  0
  6 17  1  0
 17 18  1  0
  6  1  1  0
 14  8  1  0
  3  7  1  0
 13 16  1  0
 18 19  1  0
M  END
> <minimizedAffinity>
-5.88819

> <CNNscore>
0.6100607514

> <CNNaffinity>
4.9016962051

> <CNN_VS>
2.9903323650

> <CNNaffinity_variance>
0.4180887640

$$$$



 29 30  0  0  0  0  0  0  0  0999 V2000
   39.2504    2.0049   12.6105 C   0  0  0  0  0  0  0  0  0  0  0  0
   39.3889    0.6948   13.3720 C   0  0  0  0  0  0  0  0  0  0  0  0
   40.0340   -0.3121   12.5962 O   0  0  0  0  0  0  0  0  0  0  0  0
   37.9223    0.3977   13.7715 C   0  0  0  0  0  0  0  0  0  0  0  0
   37.2307    1.6628   13.8347 O   0  0  0  0  0  0  0  0  0  0  0  0
   38.1636    2.6889   13.4300 C   0  0  0  0  0  0  0  0  0  0  0  0
   39.5428   -0.4487   11.7710 H   0  0  0  0  0  0  0  0  0  0  0  0
   37.2135   -0.5329   12.8866 N   0  0  0  0  0  0  0  0  0  0  0  0
   37.0582   -1.8712   13.1936 C   0  0  0  0  0  0  0  0  0  0  0  0
   36.4046   -2.7114   12.3882 C   0  0  0  0  0  0  0  0  0  0  0  0
   35.8344   -2.1979   11.1344 C   0  0  0  0  0  0  0  0  0  0  0  0
   35.2013   -2.9260   10.3805 O   0  0  0  0  0  0  0  0  0  0  0  0
   36.0562   -0.8764   10.8813 N   0  0  0  0  0  0  0  0  0  0  0  0
   36.6882    0.0034   11.7163 C   0  0  0  0  0  0  0  0  0  0  0  0
   36.7511    1.2012   11.4369 O   0  0  0  0  0  0  0  0  0  0  0  0
   35.7326   -0.5242   10.0207 H   0  0  0  0  0  0  0  0  0  0  0  0
   37.4213    3.7708   12.6518 C   0  0  0  0  0  0  0  0  0  0  0  0
   36.0126    3.5629   12.7590 O   0  0  0  0  0  0  0  0  0  0  0  0
   35.7852    2.6938   12.3930 H   0  0  0  0  0  0  0  0  0  0  0  0
   40.4202    2.8202   12.5997 O   0  0  0  0  0  0  0  0  0  0  0  0
   41.1942    2.6926   11.4044 C   0  0  0  0  0  0  0  0  0  0  0  0
   41.6492    4.0939   10.8860 C   0  0  0  0  0  0  0  0  0  0  0  0
   40.5062    5.0928   11.1143 C   0  0  0  0  0  0  0  0  0  0  0  0
   42.8695    4.5344   11.7213 C   0  0  0  0  0  0  0  0  0  0  0  0
   42.0211    3.9055    9.3784 C   0  0  0  0  0  0  0  0  0  0  0  0
   42.9801    6.2433    8.9013 C   0  0  0  0  0  0  0  0  0  0  0  0
   42.1292    5.0809    8.3565 C   0  0  0  0  0  0  0  0  0  0  0  0
   42.6606    4.6611    6.9821 C   0  0  0  0  0  0  0  0  0  0  0  0
   40.6953    5.6331    8.1530 C   0  0  0  0  0  0  0  0  0  0  0  0
 26 27  1  0
 27 28  1  0
 27 29  1  0
 27 25  1  0
 25 22  1  0
 22 23  1  0
 22 24  1  0
 22 21  1  0
 21 20  1  0
  1 20  1  0
  1  2  1  0
  2  3  1  0
  2  4  1  0
  4  8  1  0
  8  9  1  0
  9 10  2  0
 10 11  1  0
 11 12  2  0
 11 13  1  0
 13 14  1  0
 14 15  2  0
  4  5  1  0
  5  6  1  0
  6 17  1  0
 17 18  1  0
  6  1  1  0
 14  8  1  0
  3  7  1  0
 13 16  1  0
 18 19  1  0
M  END
> <minimizedAffinity>
-6.43880

> <CNNscore>
0.6044559479

> <CNNaffinity>
4.7180709839

> <CNN_VS>
2.8518660069

> <CNNaffinity_variance>
0.8168595433

$$$$



 29 30  0  0  0  0  0  0  0  0999 V2000
   37.7465   -0.9651   13.5902 C   0  0  0  0  0  0  0  0  0  0  0  0
   36.8994   -1.0977   12.3331 C   0  0  0  0  0  0  0  0  0  0  0  0
   35.5133   -0.8923   12.5948 O   0  0  0  0  0  0  0  0  0  0  0  0
   37.2856   -2.5113   11.8318 C   0  0  0  0  0  0  0  0  0  0  0  0
   38.6132   -2.7924   12.3235 O   0  0  0  0  0  0  0  0  0  0  0  0
   39.0185   -1.6748   13.1441 C   0  0  0  0  0  0  0  0  0  0  0  0
   35.2160   -1.5191   13.2728 H   0  0  0  0  0  0  0  0  0  0  0  0
   36.3580   -3.5812   12.2141 N   0  0  0  0  0  0  0  0  0  0  0  0
   36.5591   -4.3695   13.3310 C   0  0  0  0  0  0  0  0  0  0  0  0
   35.7066   -5.3362   13.6785 C   0  0  0  0  0  0  0  0  0  0  0  0
   34.5182   -5.5713   12.8460 C   0  0  0  0  0  0  0  0  0  0  0  0
   33.6943   -6.4268   13.1437 O   0  0  0  0  0  0  0  0  0  0  0  0
   34.4032   -4.7791   11.7420 N   0  0  0  0  0  0  0  0  0  0  0  0
   35.2470   -3.7593   11.3973 C   0  0  0  0  0  0  0  0  0  0  0  0
   34.9998   -3.0382   10.4300 O   0  0  0  0  0  0  0  0  0  0  0  0
   33.6454   -4.9571   11.1393 H   0  0  0  0  0  0  0  0  0  0  0  0
   39.8596   -2.1816   14.3115 C   0  0  0  0  0  0  0  0  0  0  0  0
   41.1979   -2.4213   13.8747 O   0  0  0  0  0  0  0  0  0  0  0  0
   41.1937   -3.0889   13.1710 H   0  0  0  0  0  0  0  0  0  0  0  0
   38.0578    0.3746   13.9665 O   0  0  0  0  0  0  0  0  0  0  0  0
   38.2247    1.2563   12.8535 C   0  0  0  0  0  0  0  0  0  0  0  0
   38.7347    2.6550   13.3256 C   0  0  0  0  0  0  0  0  0  0  0  0
   37.5462    3.6262   13.3453 C   0  0  0  0  0  0  0  0  0  0  0  0
   39.2760    2.5014   14.7623 C   0  0  0  0  0  0  0  0  0  0  0  0
   39.8639    3.0715   12.3265 C   0  0  0  0  0  0  0  0  0  0  0  0
   42.1469    3.4491   13.4481 C   0  0  0  0  0  0  0  0  0  0  0  0
   41.3469    2.5977   12.4444 C   0  0  0  0  0  0  0  0  0  0  0  0
   41.4981    1.1151   12.7997 C   0  0  0  0  0  0  0  0  0  0  0  0
   41.9995    2.8130   11.0551 C   0  0  0  0  0  0  0  0  0  0  0  0
 26 27  1  0
 27 28  1  0
 27 29  1  0
 27 25  1  0
 25 22  1  0
 22 23  1  0
 22 24  1  0
 22 21  1  0
 21 20  1  0
  1 20  1  0
  1  2  1  0
  2  3  1  0
  2  4  1  0
  4  8  1  0
  8  9  1  0
  9 10  2  0
 10 11  1  0
 11 12  2  0
 11 13  1  0
 13 14  1  0
 14 15  2  0
  4  5  1  0
  5  6  1  0
  6 17  1  0
 17 18  1  0
  6  1  1  0
 14  8  1  0
  3  7  1  0
 13 16  1  0
 18 19  1  0
M  END
> <minimizedAffinity>
-5.63946

> <CNNscore>
0.5546342134

> <CNNaffinity>
4.9458045959

> <CNN_VS>
2.7431123257

> <CNNaffinity_variance>
0.3430043161

$$$$



 29 30  0  0  0  0  0  0  0  0999 V2000
   39.3285    2.1558   12.5978 C   0  0  0  0  0  0  0  0  0  0  0  0
   39.7092    0.7639   13.0808 C   0  0  0  0  0  0  0  0  0  0  0  0
   40.2671   -0.0327   12.0387 O   0  0  0  0  0  0  0  0  0  0  0  0
   38.3734    0.2525   13.6748 C   0  0  0  0  0  0  0  0  0  0  0  0
   37.6135    1.4105   14.0803 O   0  0  0  0  0  0  0  0  0  0  0  0
   38.3712    2.5814   13.7036 C   0  0  0  0  0  0  0  0  0  0  0  0
   39.6381   -0.0885   11.3024 H   0  0  0  0  0  0  0  0  0  0  0  0
   37.5798   -0.5964   12.7798 N   0  0  0  0  0  0  0  0  0  0  0  0
   37.5459   -1.9722   12.9038 C   0  0  0  0  0  0  0  0  0  0  0  0
   36.8149   -2.7388   12.0914 C   0  0  0  0  0  0  0  0  0  0  0  0
   36.0234   -2.1000   11.0302 C   0  0  0  0  0  0  0  0  0  0  0  0
   35.3151   -2.7615   10.2818 O   0  0  0  0  0  0  0  0  0  0  0  0
   36.1324   -0.7433   10.9461 N   0  0  0  0  0  0  0  0  0  0  0  0
   36.8448    0.0566   11.7967 C   0  0  0  0  0  0  0  0  0  0  0  0
   36.7995    1.2829   11.6927 O   0  0  0  0  0  0  0  0  0  0  0  0
   35.6559   -0.3001   10.2074 H   0  0  0  0  0  0  0  0  0  0  0  0
   37.4137    3.6874   13.2710 C   0  0  0  0  0  0  0  0  0  0  0  0
   36.0906    3.3814   13.7126 O   0  0  0  0  0  0  0  0  0  0  0  0
   35.8052    2.5412   13.3208 H   0  0  0  0  0  0  0  0  0  0  0  0
   40.4096    3.0826   12.5236 O   0  0  0  0  0  0  0  0  0  0  0  0
   40.1929    4.1391   11.5850 C   0  0  0  0  0  0  0  0  0  0  0  0
   41.4846    4.4139   10.7512 C   0  0  0  0  0  0  0  0  0  0  0  0
   42.0913    3.0671   10.3339 C   0  0  0  0  0  0  0  0  0  0  0  0
   41.0730    5.1891    9.4822 C   0  0  0  0  0  0  0  0  0  0  0  0
   42.4255    5.2652   11.6660 C   0  0  0  0  0  0  0  0  0  0  0  0
   44.7566    4.2538   12.0612 C   0  0  0  0  0  0  0  0  0  0  0  0
   43.9621    5.4141   11.4330 C   0  0  0  0  0  0  0  0  0  0  0  0
   44.3547    5.5613    9.9593 C   0  0  0  0  0  0  0  0  0  0  0  0
   44.4046    6.7070   12.1645 C   0  0  0  0  0  0  0  0  0  0  0  0
 26 27  1  0
 27 28  1  0
 27 29  1  0
 27 25  1  0
 25 22  1  0
 22 23  1  0
 22 24  1  0
 22 21  1  0
 21 20  1  0
  1 20  1  0
  1  2  1  0
  2  3  1  0
  2  4  1  0
  4  8  1  0
  8  9  1  0
  9 10  2  0
 10 11  1  0
 11 12  2  0
 11 13  1  0
 13 14  1  0
 14 15  2  0
  4  5  1  0
  5  6  1  0
  6 17  1  0
 17 18  1  0
  6  1  1  0
 14  8  1  0
  3  7  1  0
 13 16  1  0
 18 19  1  0
M  END
> <minimizedAffinity>
-5.36256

> <CNNscore>
0.4637172818

> <CNNaffinity>
4.5247483253

> <CNN_VS>
2.0982038975

> <CNNaffinity_variance>
0.8917557597

$$$$



 29 30  0  0  0  0  0  0  0  0999 V2000
   39.1721   -3.4685   13.8696 C   0  0  0  0  0  0  0  0  0  0  0  0
   37.7006   -3.3099   14.2231 C   0  0  0  0  0  0  0  0  0  0  0  0
   37.2338   -4.3612   15.0651 O   0  0  0  0  0  0  0  0  0  0  0  0
   37.0404   -3.2267   12.8245 C   0  0  0  0  0  0  0  0  0  0  0  0
   38.0347   -2.7170   11.9110 O   0  0  0  0  0  0  0  0  0  0  0  0
   39.2648   -2.5584   12.6516 C   0  0  0  0  0  0  0  0  0  0  0  0
   37.3894   -5.2152   14.6324 H   0  0  0  0  0  0  0  0  0  0  0  0
   36.4808   -4.4873   12.3254 N   0  0  0  0  0  0  0  0  0  0  0  0
   37.1126   -5.7018   12.5131 C   0  0  0  0  0  0  0  0  0  0  0  0
   36.5941   -6.8469   12.0638 C   0  0  0  0  0  0  0  0  0  0  0  0
   35.3123   -6.8149   11.3450 C   0  0  0  0  0  0  0  0  0  0  0  0
   34.7852   -7.8441   10.9421 O   0  0  0  0  0  0  0  0  0  0  0  0
   34.7643   -5.5788   11.1674 N   0  0  0  0  0  0  0  0  0  0  0  0
   35.2643   -4.4038   11.6574 C   0  0  0  0  0  0  0  0  0  0  0  0
   34.6400   -3.3506   11.5244 O   0  0  0  0  0  0  0  0  0  0  0  0
   33.9350   -5.5277   10.6394 H   0  0  0  0  0  0  0  0  0  0  0  0
   40.4476   -2.8904   11.7472 C   0  0  0  0  0  0  0  0  0  0  0  0
   40.5294   -1.9358   10.6884 O   0  0  0  0  0  0  0  0  0  0  0  0
   39.7120   -1.9608   10.1666 H   0  0  0  0  0  0  0  0  0  0  0  0
   40.0824   -3.0166   14.8698 O   0  0  0  0  0  0  0  0  0  0  0  0
   40.6407   -4.0740   15.6537 C   0  0  0  0  0  0  0  0  0  0  0  0
   40.8266   -3.6253   17.1381 C   0  0  0  0  0  0  0  0  0  0  0  0
   42.0628   -2.7193   17.2224 C   0  0  0  0  0  0  0  0  0  0  0  0
   39.5823   -2.8088   17.5453 C   0  0  0  0  0  0  0  0  0  0  0  0
   40.9558   -4.9367   17.9809 C   0  0  0  0  0  0  0  0  0  0  0  0
   43.2108   -5.1923   19.1901 C   0  0  0  0  0  0  0  0  0  0  0  0
   41.6897   -5.0170   19.3565 C   0  0  0  0  0  0  0  0  0  0  0  0
   41.4121   -3.8250   20.2783 C   0  0  0  0  0  0  0  0  0  0  0  0
   41.1681   -6.2899   20.0708 C   0  0  0  0  0  0  0  0  0  0  0  0
 26 27  1  0
 27 28  1  0
 27 29  1  0
 27 25  1  0
 25 22  1  0
 22 23  1  0
 22 24  1  0
 22 21  1  0
 21 20  1  0
  1 20  1  0
  1  2  1  0
  2  3  1  0
  2  4  1  0
  4  8  1  0
  8  9  1  0
  9 10  2  0
 10 11  1  0
 11 12  2  0
 11 13  1  0
 13 14  1  0
 14 15  2  0
  4  5  1  0
  5  6  1  0
  6 17  1  0
 17 18  1  0
  6  1  1  0
 14  8  1  0
  3  7  1  0
 13 16  1  0
 18 19  1  0
M  END
> <minimizedAffinity>
-4.82602

> <CNNscore>
0.4377683997

> <CNNaffinity>
4.8082475662

> <CNN_VS>
2.1048989296

> <CNNaffinity_variance>
0.0010888055

$$$$



 29 30  0  0  0  0  0  0  0  0999 V2000
   37.9903    1.8082   13.6042 C   0  0  0  0  0  0  0  0  0  0  0  0
   36.7878    1.7247   12.6755 C   0  0  0  0  0  0  0  0  0  0  0  0
   35.5643    1.5787   13.3922 O   0  0  0  0  0  0  0  0  0  0  0  0
   37.1726    0.5393   11.7559 C   0  0  0  0  0  0  0  0  0  0  0  0
   38.6138    0.4653   11.7327 O   0  0  0  0  0  0  0  0  0  0  0  0
   39.1156    1.4785   12.6319 C   0  0  0  0  0  0  0  0  0  0  0  0
   35.6127    0.7919   13.9575 H   0  0  0  0  0  0  0  0  0  0  0  0
   36.5968   -0.7549   12.1364 N   0  0  0  0  0  0  0  0  0  0  0  0
   35.7801   -1.4783   11.2885 C   0  0  0  0  0  0  0  0  0  0  0  0
   35.2659   -2.6597   11.6373 C   0  0  0  0  0  0  0  0  0  0  0  0
   35.5759   -3.2073   12.9658 C   0  0  0  0  0  0  0  0  0  0  0  0
   35.1508   -4.3009   13.3160 O   0  0  0  0  0  0  0  0  0  0  0  0
   36.3591   -2.4235   13.7607 N   0  0  0  0  0  0  0  0  0  0  0  0
   36.9250   -1.2314   13.4007 C   0  0  0  0  0  0  0  0  0  0  0  0
   37.6983   -0.6474   14.1607 O   0  0  0  0  0  0  0  0  0  0  0  0
   36.5326   -2.7442   14.6751 H   0  0  0  0  0  0  0  0  0  0  0  0
   40.3722    0.9628   13.3262 C   0  0  0  0  0  0  0  0  0  0  0  0
   41.4378    0.8572   12.3814 O   0  0  0  0  0  0  0  0  0  0  0  0
   41.1858    0.2391   11.6776 H   0  0  0  0  0  0  0  0  0  0  0  0
   38.2194    3.0940   14.1764 O   0  0  0  0  0  0  0  0  0  0  0  0
   39.2619    3.1064   15.1547 C   0  0  0  0  0  0  0  0  0  0  0  0
   39.2505    4.4441   15.9607 C   0  0  0  0  0  0  0  0  0  0  0  0
   40.4470    5.2943   15.5113 C   0  0  0  0  0  0  0  0  0  0  0  0
   37.9480    5.1949   15.6134 C   0  0  0  0  0  0  0  0  0  0  0  0
   39.3004    4.0469   17.4727 C   0  0  0  0  0  0  0  0  0  0  0  0
   40.3919    3.1521   19.6224 C   0  0  0  0  0  0  0  0  0  0  0  0
   40.3676    3.0849   18.0838 C   0  0  0  0  0  0  0  0  0  0  0  0
   40.2146    1.6265   17.6399 C   0  0  0  0  0  0  0  0  0  0  0  0
   41.7521    3.5789   17.5924 C   0  0  0  0  0  0  0  0  0  0  0  0
 26 27  1  0
 27 28  1  0
 27 29  1  0
 27 25  1  0
 25 22  1  0
 22 23  1  0
 22 24  1  0
 22 21  1  0
 21 20  1  0
  1 20  1  0
  1  2  1  0
  2  3  1  0
  2  4  1  0
  4  8  1  0
  8  9  1  0
  9 10  2  0
 10 11  1  0
 11 12  2  0
 11 13  1  0
 13 14  1  0
 14 15  2  0
  4  5  1  0
  5  6  1  0
  6 17  1  0
 17 18  1  0
  6  1  1  0
 14  8  1  0
  3  7  1  0
 13 16  1  0
 18 19  1  0
M  END
> <minimizedAffinity>
-5.61452

> <CNNscore>
0.2964582741

> <CNNaffinity>
4.6217093468

> <CNN_VS>
1.3701440096

> <CNNaffinity_variance>
0.1295603961

$$$$



 29 30  0  0  0  0  0  0  0  0999 V2000
   43.1491    5.7811    7.8184 C   0  0  0  0  0  0  0  0  0  0  0  0
   43.4666    5.7209    6.3315 C   0  0  0  0  0  0  0  0  0  0  0  0
   44.4446    6.6857    5.9512 O   0  0  0  0  0  0  0  0  0  0  0  0
   42.0657    5.8986    5.6953 C   0  0  0  0  0  0  0  0  0  0  0  0
   41.0965    5.4254    6.6543 O   0  0  0  0  0  0  0  0  0  0  0  0
   41.8160    5.0446    7.8477 C   0  0  0  0  0  0  0  0  0  0  0  0
   44.1373    7.5721    6.1977 H   0  0  0  0  0  0  0  0  0  0  0  0
   41.7448    7.2654    5.2708 N   0  0  0  0  0  0  0  0  0  0  0  0
   41.1195    8.1711    6.1064 C   0  0  0  0  0  0  0  0  0  0  0  0
   40.8377    9.4164    5.7171 C   0  0  0  0  0  0  0  0  0  0  0  0
   41.2014    9.8370    4.3563 C   0  0  0  0  0  0  0  0  0  0  0  0
   40.9893   10.9785    3.9672 O   0  0  0  0  0  0  0  0  0  0  0  0
   41.7836    8.8809    3.5775 N   0  0  0  0  0  0  0  0  0  0  0  0
   42.1144    7.6153    3.9770 C   0  0  0  0  0  0  0  0  0  0  0  0
   42.7280    6.8583    3.2239 O   0  0  0  0  0  0  0  0  0  0  0  0
   41.9838    9.1233    2.6445 H   0  0  0  0  0  0  0  0  0  0  0  0
   40.9754    5.3808    9.0756 C   0  0  0  0  0  0  0  0  0  0  0  0
   39.9549    6.3149    8.7216 O   0  0  0  0  0  0  0  0  0  0  0  0
   40.3631    7.1268    8.3825 H   0  0  0  0  0  0  0  0  0  0  0  0
   44.0822    5.1069    8.6598 O   0  0  0  0  0  0  0  0  0  0  0  0
   44.3961    5.8254    9.8553 C   0  0  0  0  0  0  0  0  0  0  0  0
   45.9399    6.0129   10.0005 C   0  0  0  0  0  0  0  0  0  0  0  0
   46.2039    7.3433   10.7192 C   0  0  0  0  0  0  0  0  0  0  0  0
   46.4767    4.8600   10.8742 C   0  0  0  0  0  0  0  0  0  0  0  0
   46.5274    5.9592    8.5519 C   0  0  0  0  0  0  0  0  0  0  0  0
   47.9715    6.6753    6.5482 C   0  0  0  0  0  0  0  0  0  0  0  0
   47.4732    7.0496    7.9567 C   0  0  0  0  0  0  0  0  0  0  0  0
   46.8587    8.4527    7.9235 C   0  0  0  0  0  0  0  0  0  0  0  0
   48.7226    7.1095    8.8720 C   0  0  0  0  0  0  0  0  0  0  0  0
 26 27  1  0
 27 28  1  0
 27 29  1  0
 27 25  1  0
 25 22  1  0
 22 23  1  0
 22 24  1  0
 22 21  1  0
 21 20  1  0
  1 20  1  0
  1  2  1  0
  2  3  1  0
  2  4  1  0
  4  8  1  0
  8  9  1  0
  9 10  2  0
 10 11  1  0
 11 12  2  0
 11 13  1  0
 13 14  1  0
 14 15  2  0
  4  5  1  0
  5  6  1  0
  6 17  1  0
 17 18  1  0
  6  1  1  0
 14  8  1  0
  3  7  1  0
 13 16  1  0
 18 19  1  0
M  END
> <minimizedAffinity>
-5.78440

> <CNNscore>
0.2833979428

> <CNNaffinity>
4.3117394447

> <CNN_VS>
1.2219381332

> <CNNaffinity_variance>
0.9537102580

$$$$
