


 26 27  0  0  0  0  0  0  0  0999 V2000
  -41.3997  -60.5064  -49.7920 C   0  0  0  0  0  0  0  0  0  0  0  0
  -40.1236  -59.7547  -49.3590 C   0  0  0  0  0  0  0  0  0  0  0  0
  -38.8900  -60.2865  -50.1285 C   0  0  0  0  0  0  0  0  0  0  0  0
  -39.1436  -60.6367  -51.6026 C   0  0  0  0  0  0  0  0  0  0  0  0
  -38.0588  -60.1033  -52.3811 O   0  0  0  0  0  0  0  0  0  0  0  0
  -40.4272  -60.0154  -52.1506 C   0  0  0  0  0  0  0  0  0  0  0  0
  -41.6705  -60.3052  -51.3062 C   0  0  0  0  0  0  0  0  0  0  0  0
  -42.3561  -61.4476  -51.8399 O   0  0  0  0  0  0  0  0  0  0  0  0
  -37.2204  -60.4742  -52.0642 H   0  0  0  0  0  0  0  0  0  0  0  0
  -41.7851  -62.2287  -51.7713 H   0  0  0  0  0  0  0  0  0  0  0  0
  -39.1609  -62.1678  -51.7800 C   0  0  0  0  0  0  0  0  0  0  0  0
  -40.0500  -62.9361  -51.4489 O   0  0  0  0  0  0  0  0  0  0  0  0
  -38.0132  -62.6339  -52.3259 O   0  0  0  0  0  0  0  0  0  0  0  0
  -37.3369  -62.0358  -52.5766 H   0  0  0  0  0  0  0  0  0  0  0  0
  -42.1434  -59.4941  -47.7537 C   0  0  0  0  0  0  0  0  0  0  0  0
  -42.5105  -60.0186  -49.0249 O   0  0  0  0  0  0  0  0  0  0  0  0
  -39.8142  -59.8309  -47.8425 C   0  0  0  0  0  0  0  0  0  0  0  0
  -38.4239  -60.3222  -47.4152 C   0  0  0  0  0  0  0  0  0  0  0  0
  -37.8051  -59.5644  -46.2419 C   0  0  0  0  0  0  0  0  0  0  0  0
  -36.7529  -60.3546  -45.6879 O   0  0  0  0  0  0  0  0  0  0  0  0
  -36.9758  -60.9162  -44.4613 C   0  0  0  0  0  0  0  0  0  0  0  0
  -38.1906  -60.9367  -43.7749 C   0  0  0  0  0  0  0  0  0  0  0  0
  -38.2781  -61.5483  -42.5201 C   0  0  0  0  0  0  0  0  0  0  0  0
  -37.1544  -62.1424  -41.9480 C   0  0  0  0  0  0  0  0  0  0  0  0
  -35.9402  -62.1267  -42.6296 C   0  0  0  0  0  0  0  0  0  0  0  0
  -35.8542  -61.5157  -43.8819 C   0  0  0  0  0  0  0  0  0  0  0  0
 15 16  1  0
  1 16  1  0
  1  2  1  0
  2 17  1  0
 17 18  1  0
 18 19  1  0
 19 20  1  0
 20 21  1  0
 21 22  2  0
 22 23  1  0
 23 24  2  0
 24 25  1  0
 25 26  2  0
  2  3  1  0
  3  4  1  0
  4  5  1  0
  4 11  1  0
 11 12  2  0
 11 13  1  0
  4  6  1  0
  6  7  1  0
  7  8  1  0
  7  1  1  0
 26 21  1  0
  5  9  1  0
 13 14  1  0
  8 10  1  0
M  END
> <minimizedAffinity>
-9.67381

> <CNNscore>
0.9310506582

> <CNNaffinity>
6.0754513741

> <CNN_VS>
5.6565527916

> <CNNaffinity_variance>
0.0343972631

$$$$



 26 27  0  0  0  0  0  0  0  0999 V2000
  -38.2429  -59.9863  -50.4083 C   0  0  0  0  0  0  0  0  0  0  0  0
  -39.0527  -60.3215  -49.1384 C   0  0  0  0  0  0  0  0  0  0  0  0
  -40.5393  -60.5723  -49.4901 C   0  0  0  0  0  0  0  0  0  0  0  0
  -40.7785  -61.3273  -50.8065 C   0  0  0  0  0  0  0  0  0  0  0  0
  -41.7771  -62.3339  -50.5687 O   0  0  0  0  0  0  0  0  0  0  0  0
  -39.5327  -62.0525  -51.3124 C   0  0  0  0  0  0  0  0  0  0  0  0
  -38.2925  -61.1618  -51.4195 C   0  0  0  0  0  0  0  0  0  0  0  0
  -38.1754  -60.6634  -52.7603 O   0  0  0  0  0  0  0  0  0  0  0  0
  -42.5890  -61.9136  -50.2445 H   0  0  0  0  0  0  0  0  0  0  0  0
  -38.9395  -60.1019  -52.9645 H   0  0  0  0  0  0  0  0  0  0  0  0
  -41.3146  -60.3552  -51.8758 C   0  0  0  0  0  0  0  0  0  0  0  0
  -40.9462  -60.2629  -53.0361 O   0  0  0  0  0  0  0  0  0  0  0  0
  -42.2585  -59.5197  -51.3825 O   0  0  0  0  0  0  0  0  0  0  0  0
  -42.5343  -59.5989  -50.4906 H   0  0  0  0  0  0  0  0  0  0  0  0
  -36.0895  -60.8854  -49.8727 C   0  0  0  0  0  0  0  0  0  0  0  0
  -36.8834  -59.7154  -50.0360 O   0  0  0  0  0  0  0  0  0  0  0  0
  -38.9962  -59.2368  -48.0332 C   0  0  0  0  0  0  0  0  0  0  0  0
  -38.5697  -59.6674  -46.6228 C   0  0  0  0  0  0  0  0  0  0  0  0
  -39.6107  -60.4797  -45.8545 C   0  0  0  0  0  0  0  0  0  0  0  0
  -39.1927  -60.5933  -44.4941 O   0  0  0  0  0  0  0  0  0  0  0  0
  -37.9068  -61.0002  -44.2699 C   0  0  0  0  0  0  0  0  0  0  0  0
  -36.7821  -60.6104  -44.9984 C   0  0  0  0  0  0  0  0  0  0  0  0
  -35.5192  -61.1066  -44.6595 C   0  0  0  0  0  0  0  0  0  0  0  0
  -35.3748  -61.9913  -43.5921 C   0  0  0  0  0  0  0  0  0  0  0  0
  -36.4934  -62.3819  -42.8605 C   0  0  0  0  0  0  0  0  0  0  0  0
  -37.7536  -61.8860  -43.1998 C   0  0  0  0  0  0  0  0  0  0  0  0
 15 16  1  0
  1 16  1  0
  1  2  1  0
  2 17  1  0
 17 18  1  0
 18 19  1  0
 19 20  1  0
 20 21  1  0
 21 22  2  0
 22 23  1  0
 23 24  2  0
 24 25  1  0
 25 26  2  0
  2  3  1  0
  3  4  1  0
  4  5  1  0
  4 11  1  0
 11 12  2  0
 11 13  1  0
  4  6  1  0
  6  7  1  0
  7  8  1  0
  7  1  1  0
 26 21  1  0
  5  9  1  0
 13 14  1  0
  8 10  1  0
M  END
> <minimizedAffinity>
-8.74934

> <CNNscore>
0.7654238343

> <CNNaffinity>
5.8606448174

> <CNN_VS>
4.4858770370

> <CNNaffinity_variance>
0.0028726936

$$$$



 26 27  0  0  0  0  0  0  0  0999 V2000
  -40.0458  -60.8134  -48.9061 C   0  0  0  0  0  0  0  0  0  0  0  0
  -38.7763  -59.9379  -48.9559 C   0  0  0  0  0  0  0  0  0  0  0  0
  -37.9421  -60.2585  -50.2201 C   0  0  0  0  0  0  0  0  0  0  0  0
  -38.7630  -60.5394  -51.4878 C   0  0  0  0  0  0  0  0  0  0  0  0
  -38.1587  -59.8237  -52.5786 O   0  0  0  0  0  0  0  0  0  0  0  0
  -40.2062  -60.0493  -51.3841 C   0  0  0  0  0  0  0  0  0  0  0  0
  -40.9467  -60.5481  -50.1409 C   0  0  0  0  0  0  0  0  0  0  0  0
  -41.6923  -61.7297  -50.4695 O   0  0  0  0  0  0  0  0  0  0  0  0
  -37.2364  -60.1065  -52.6794 H   0  0  0  0  0  0  0  0  0  0  0  0
  -41.0806  -62.4357  -50.7309 H   0  0  0  0  0  0  0  0  0  0  0  0
  -38.7214  -62.0454  -51.8136 C   0  0  0  0  0  0  0  0  0  0  0  0
  -37.7382  -62.7074  -52.1062 O   0  0  0  0  0  0  0  0  0  0  0  0
  -39.9525  -62.6081  -51.7964 O   0  0  0  0  0  0  0  0  0  0  0  0
  -40.7007  -62.0913  -51.5705 H   0  0  0  0  0  0  0  0  0  0  0  0
  -41.7389  -59.4921  -47.8480 C   0  0  0  0  0  0  0  0  0  0  0  0
  -40.7665  -60.5208  -47.6998 O   0  0  0  0  0  0  0  0  0  0  0  0
  -37.8502  -60.0748  -47.7210 C   0  0  0  0  0  0  0  0  0  0  0  0
  -38.5025  -60.1030  -46.3316 C   0  0  0  0  0  0  0  0  0  0  0  0
  -37.5501  -60.4157  -45.1787 C   0  0  0  0  0  0  0  0  0  0  0  0
  -38.1520  -61.4016  -44.3397 O   0  0  0  0  0  0  0  0  0  0  0  0
  -39.0081  -60.9560  -43.3711 C   0  0  0  0  0  0  0  0  0  0  0  0
  -40.4018  -60.9548  -43.4427 C   0  0  0  0  0  0  0  0  0  0  0  0
  -41.1596  -60.4666  -42.3734 C   0  0  0  0  0  0  0  0  0  0  0  0
  -40.5290  -59.9801  -41.2294 C   0  0  0  0  0  0  0  0  0  0  0  0
  -39.1387  -59.9810  -41.1518 C   0  0  0  0  0  0  0  0  0  0  0  0
  -38.3834  -60.4684  -42.2199 C   0  0  0  0  0  0  0  0  0  0  0  0
 15 16  1  0
  1 16  1  0
  1  2  1  0
  2 17  1  0
 17 18  1  0
 18 19  1  0
 19 20  1  0
 20 21  1  0
 21 22  2  0
 22 23  1  0
 23 24  2  0
 24 25  1  0
 25 26  2  0
  2  3  1  0
  3  4  1  0
  4  5  1  0
  4 11  1  0
 11 12  2  0
 11 13  1  0
  4  6  1  0
  6  7  1  0
  7  8  1  0
  7  1  1  0
 26 21  1  0
  5  9  1  0
 13 14  1  0
  8 10  1  0
M  END
> <minimizedAffinity>
-8.01719

> <CNNscore>
0.6840085387

> <CNNaffinity>
5.2819237709

> <CNN_VS>
3.6128809452

> <CNNaffinity_variance>
0.0180003960

$$$$



 26 27  0  0  0  0  0  0  0  0999 V2000
  -42.7732  -60.8792  -43.8062 C   0  0  0  0  0  0  0  0  0  0  0  0
  -44.2832  -60.8289  -44.1199 C   0  0  0  0  0  0  0  0  0  0  0  0
  -44.6601  -61.9108  -45.1612 C   0  0  0  0  0  0  0  0  0  0  0  0
  -43.9264  -63.2511  -45.0021 C   0  0  0  0  0  0  0  0  0  0  0  0
  -44.8913  -64.3076  -45.1432 O   0  0  0  0  0  0  0  0  0  0  0  0
  -43.2854  -63.4199  -43.6257 C   0  0  0  0  0  0  0  0  0  0  0  0
  -42.3796  -62.2573  -43.2125 C   0  0  0  0  0  0  0  0  0  0  0  0
  -41.0190  -62.5676  -43.5480 O   0  0  0  0  0  0  0  0  0  0  0  0
  -45.3240  -64.2369  -46.0084 H   0  0  0  0  0  0  0  0  0  0  0  0
  -40.9356  -62.6568  -44.5103 H   0  0  0  0  0  0  0  0  0  0  0  0
  -42.8725  -63.4049  -46.1163 C   0  0  0  0  0  0  0  0  0  0  0  0
  -42.8182  -62.7860  -47.1673 O   0  0  0  0  0  0  0  0  0  0  0  0
  -41.9756  -64.3812  -45.8428 O   0  0  0  0  0  0  0  0  0  0  0  0
  -42.0259  -64.8502  -45.0332 H   0  0  0  0  0  0  0  0  0  0  0  0
  -41.5303  -60.2255  -41.8671 C   0  0  0  0  0  0  0  0  0  0  0  0
  -42.4559  -59.8340  -42.8751 O   0  0  0  0  0  0  0  0  0  0  0  0
  -44.7872  -59.4605  -44.6441 C   0  0  0  0  0  0  0  0  0  0  0  0
  -45.5466  -59.4358  -45.9780 C   0  0  0  0  0  0  0  0  0  0  0  0
  -45.0369  -58.4122  -46.9910 C   0  0  0  0  0  0  0  0  0  0  0  0
  -44.8771  -57.1550  -46.3335 O   0  0  0  0  0  0  0  0  0  0  0  0
  -45.3528  -56.0488  -46.9813 C   0  0  0  0  0  0  0  0  0  0  0  0
  -46.5701  -55.9516  -47.6569 C   0  0  0  0  0  0  0  0  0  0  0  0
  -46.9339  -54.7533  -48.2796 C   0  0  0  0  0  0  0  0  0  0  0  0
  -46.0853  -53.6487  -48.2283 C   0  0  0  0  0  0  0  0  0  0  0  0
  -44.8705  -53.7396  -47.5537 C   0  0  0  0  0  0  0  0  0  0  0  0
  -44.5084  -54.9363  -46.9327 C   0  0  0  0  0  0  0  0  0  0  0  0
 15 16  1  0
  1 16  1  0
  1  2  1  0
  2 17  1  0
 17 18  1  0
 18 19  1  0
 19 20  1  0
 20 21  1  0
 21 22  2  0
 22 23  1  0
 23 24  2  0
 24 25  1  0
 25 26  2  0
  2  3  1  0
  3  4  1  0
  4  5  1  0
  4 11  1  0
 11 12  2  0
 11 13  1  0
  4  6  1  0
  6  7  1  0
  7  8  1  0
  7  1  1  0
 26 21  1  0
  5  9  1  0
 13 14  1  0
  8 10  1  0
M  END
> <minimizedAffinity>
-4.93303

> <CNNscore>
0.3747261465

> <CNNaffinity>
4.1807899475

> <CNN_VS>
1.5666513443

> <CNNaffinity_variance>
0.0217335206

$$$$



 26 27  0  0  0  0  0  0  0  0999 V2000
  -41.5949  -60.0415  -46.3447 C   0  0  0  0  0  0  0  0  0  0  0  0
  -42.2944  -61.3800  -46.0284 C   0  0  0  0  0  0  0  0  0  0  0  0
  -43.7125  -61.1328  -45.4585 C   0  0  0  0  0  0  0  0  0  0  0  0
  -44.4799  -59.9692  -46.1043 C   0  0  0  0  0  0  0  0  0  0  0  0
  -45.8249  -60.4084  -46.3593 O   0  0  0  0  0  0  0  0  0  0  0  0
  -43.8932  -59.5413  -47.4484 C   0  0  0  0  0  0  0  0  0  0  0  0
  -42.3929  -59.2405  -47.4068 C   0  0  0  0  0  0  0  0  0  0  0  0
  -42.1920  -57.8323  -47.2152 O   0  0  0  0  0  0  0  0  0  0  0  0
  -46.2362  -60.6905  -45.5273 H   0  0  0  0  0  0  0  0  0  0  0  0
  -42.5525  -57.5685  -46.3542 H   0  0  0  0  0  0  0  0  0  0  0  0
  -44.5357  -58.7761  -45.1299 C   0  0  0  0  0  0  0  0  0  0  0  0
  -44.0124  -58.7007  -44.0294 O   0  0  0  0  0  0  0  0  0  0  0  0
  -45.3035  -57.7653  -45.6001 O   0  0  0  0  0  0  0  0  0  0  0  0
  -45.7007  -57.8331  -46.4461 H   0  0  0  0  0  0  0  0  0  0  0  0
  -40.0222  -59.8113  -48.1352 C   0  0  0  0  0  0  0  0  0  0  0  0
  -40.2696  -60.3107  -46.8254 O   0  0  0  0  0  0  0  0  0  0  0  0
  -41.5280  -62.2883  -45.0340 C   0  0  0  0  0  0  0  0  0  0  0  0
  -41.4683  -61.8553  -43.5624 C   0  0  0  0  0  0  0  0  0  0  0  0
  -40.0598  -61.6509  -43.0073 C   0  0  0  0  0  0  0  0  0  0  0  0
  -39.3381  -60.7913  -43.8897 O   0  0  0  0  0  0  0  0  0  0  0  0
  -38.0011  -61.0347  -44.0406 C   0  0  0  0  0  0  0  0  0  0  0  0
  -37.1769  -60.5091  -45.0366 C   0  0  0  0  0  0  0  0  0  0  0  0
  -35.8195  -60.8436  -45.0738 C   0  0  0  0  0  0  0  0  0  0  0  0
  -35.2806  -61.7018  -44.1166 C   0  0  0  0  0  0  0  0  0  0  0  0
  -36.0980  -62.2273  -43.1193 C   0  0  0  0  0  0  0  0  0  0  0  0
  -37.4529  -61.8927  -43.0833 C   0  0  0  0  0  0  0  0  0  0  0  0
 15 16  1  0
  1 16  1  0
  1  2  1  0
  2 17  1  0
 17 18  1  0
 18 19  1  0
 19 20  1  0
 20 21  1  0
 21 22  2  0
 22 23  1  0
 23 24  2  0
 24 25  1  0
 25 26  2  0
  2  3  1  0
  3  4  1  0
  4  5  1  0
  4 11  1  0
 11 12  2  0
 11 13  1  0
  4  6  1  0
  6  7  1  0
  7  8  1  0
  7  1  1  0
 26 21  1  0
  5  9  1  0
 13 14  1  0
  8 10  1  0
M  END
> <minimizedAffinity>
-6.65768

> <CNNscore>
0.2059701830

> <CNNaffinity>
3.1397025585

> <CNN_VS>
0.6466851234

> <CNNaffinity_variance>
1.5016837120

$$$$



 26 27  0  0  0  0  0  0  0  0999 V2000
  -43.9469  -61.9015  -41.9906 C   0  0  0  0  0  0  0  0  0  0  0  0
  -42.5673  -61.3042  -42.3377 C   0  0  0  0  0  0  0  0  0  0  0  0
  -42.0870  -60.3525  -41.2150 C   0  0  0  0  0  0  0  0  0  0  0  0
  -42.4165  -60.8123  -39.7867 C   0  0  0  0  0  0  0  0  0  0  0  0
  -41.2446  -60.6233  -38.9754 O   0  0  0  0  0  0  0  0  0  0  0  0
  -42.7747  -62.2952  -39.7056 C   0  0  0  0  0  0  0  0  0  0  0  0
  -43.8761  -62.7250  -40.6778 C   0  0  0  0  0  0  0  0  0  0  0  0
  -45.1450  -62.6940  -40.0078 O   0  0  0  0  0  0  0  0  0  0  0  0
  -40.9819  -59.6898  -38.9993 H   0  0  0  0  0  0  0  0  0  0  0  0
  -45.3482  -61.7835  -39.7423 H   0  0  0  0  0  0  0  0  0  0  0  0
  -43.5520  -59.9454  -39.2080 C   0  0  0  0  0  0  0  0  0  0  0  0
  -43.8884  -58.8317  -39.5785 O   0  0  0  0  0  0  0  0  0  0  0  0
  -44.1598  -60.5345  -38.1516 O   0  0  0  0  0  0  0  0  0  0  0  0
  -43.8941  -61.3895  -37.8753 H   0  0  0  0  0  0  0  0  0  0  0  0
  -43.7153  -63.9979  -43.1236 C   0  0  0  0  0  0  0  0  0  0  0  0
  -44.3778  -62.7391  -43.0736 O   0  0  0  0  0  0  0  0  0  0  0  0
  -42.5197  -60.5288  -43.6785 C   0  0  0  0  0  0  0  0  0  0  0  0
  -41.4695  -60.9490  -44.7164 C   0  0  0  0  0  0  0  0  0  0  0  0
  -40.2736  -61.7128  -44.1504 C   0  0  0  0  0  0  0  0  0  0  0  0
  -39.3380  -60.7740  -43.6198 O   0  0  0  0  0  0  0  0  0  0  0  0
  -38.0162  -60.9884  -43.8961 C   0  0  0  0  0  0  0  0  0  0  0  0
  -37.0991  -61.6415  -43.0714 C   0  0  0  0  0  0  0  0  0  0  0  0
  -35.7700  -61.7918  -43.4799 C   0  0  0  0  0  0  0  0  0  0  0  0
  -35.3529  -61.2925  -44.7127 C   0  0  0  0  0  0  0  0  0  0  0  0
  -36.2643  -60.6420  -45.5405 C   0  0  0  0  0  0  0  0  0  0  0  0
  -37.5907  -60.4925  -45.1315 C   0  0  0  0  0  0  0  0  0  0  0  0
 15 16  1  0
  1 16  1  0
  1  2  1  0
  2 17  1  0
 17 18  1  0
 18 19  1  0
 19 20  1  0
 20 21  1  0
 21 22  2  0
 22 23  1  0
 23 24  2  0
 24 25  1  0
 25 26  2  0
  2  3  1  0
  3  4  1  0
  4  5  1  0
  4 11  1  0
 11 12  2  0
 11 13  1  0
  4  6  1  0
  6  7  1  0
  7  8  1  0
  7  1  1  0
 26 21  1  0
  5  9  1  0
 13 14  1  0
  8 10  1  0
M  END
> <minimizedAffinity>
-4.69883

> <CNNscore>
0.2057139874

> <CNNaffinity>
3.1352150440

> <CNN_VS>
0.6449576020

> <CNNaffinity_variance>
1.4286245108

$$$$



 26 27  0  0  0  0  0  0  0  0999 V2000
  -42.3134  -62.8853  -44.6923 C   0  0  0  0  0  0  0  0  0  0  0  0
  -42.2004  -61.6443  -43.7824 C   0  0  0  0  0  0  0  0  0  0  0  0
  -41.8176  -60.3938  -44.6109 C   0  0  0  0  0  0  0  0  0  0  0  0
  -42.4745  -60.3050  -45.9968 C   0  0  0  0  0  0  0  0  0  0  0  0
  -42.9479  -58.9599  -46.1811 O   0  0  0  0  0  0  0  0  0  0  0  0
  -43.6870  -61.2231  -46.1416 C   0  0  0  0  0  0  0  0  0  0  0  0
  -43.4132  -62.6818  -45.7674 C   0  0  0  0  0  0  0  0  0  0  0  0
  -43.0893  -63.4270  -46.9505 O   0  0  0  0  0  0  0  0  0  0  0  0
  -42.2054  -58.3415  -46.0966 H   0  0  0  0  0  0  0  0  0  0  0  0
  -42.2697  -63.0805  -47.3366 H   0  0  0  0  0  0  0  0  0  0  0  0
  -41.4301  -60.6057  -47.0898 C   0  0  0  0  0  0  0  0  0  0  0  0
  -40.2166  -60.5137  -46.9922 O   0  0  0  0  0  0  0  0  0  0  0  0
  -42.0036  -60.9583  -48.2641 O   0  0  0  0  0  0  0  0  0  0  0  0
  -42.9359  -61.0261  -48.3285 H   0  0  0  0  0  0  0  0  0  0  0  0
  -42.5066  -65.2688  -44.5737 C   0  0  0  0  0  0  0  0  0  0  0  0
  -42.6229  -64.0297  -43.8830 O   0  0  0  0  0  0  0  0  0  0  0  0
  -41.1802  -61.7850  -42.6246 C   0  0  0  0  0  0  0  0  0  0  0  0
  -40.5416  -60.5047  -42.0681 C   0  0  0  0  0  0  0  0  0  0  0  0
  -39.0660  -60.6307  -41.6932 C   0  0  0  0  0  0  0  0  0  0  0  0
  -38.5026  -61.7312  -42.4073 O   0  0  0  0  0  0  0  0  0  0  0  0
  -37.5946  -61.4384  -43.3867 C   0  0  0  0  0  0  0  0  0  0  0  0
  -37.8403  -60.6900  -44.5387 C   0  0  0  0  0  0  0  0  0  0  0  0
  -36.8148  -60.4663  -45.4629 C   0  0  0  0  0  0  0  0  0  0  0  0
  -35.5413  -60.9871  -45.2394 C   0  0  0  0  0  0  0  0  0  0  0  0
  -35.2901  -61.7327  -44.0905 C   0  0  0  0  0  0  0  0  0  0  0  0
  -36.3147  -61.9555  -43.1688 C   0  0  0  0  0  0  0  0  0  0  0  0
 15 16  1  0
  1 16  1  0
  1  2  1  0
  2 17  1  0
 17 18  1  0
 18 19  1  0
 19 20  1  0
 20 21  1  0
 21 22  2  0
 22 23  1  0
 23 24  2  0
 24 25  1  0
 25 26  2  0
  2  3  1  0
  3  4  1  0
  4  5  1  0
  4 11  1  0
 11 12  2  0
 11 13  1  0
  4  6  1  0
  6  7  1  0
  7  8  1  0
  7  1  1  0
 26 21  1  0
  5  9  1  0
 13 14  1  0
  8 10  1  0
M  END
> <minimizedAffinity>
-7.19694

> <CNNscore>
0.1993414313

> <CNNaffinity>
3.4555263519

> <CNN_VS>
0.6888295412

> <CNNaffinity_variance>
1.1344032288

$$$$



 26 27  0  0  0  0  0  0  0  0999 V2000
  -44.7210  -61.9914  -45.5285 C   0  0  0  0  0  0  0  0  0  0  0  0
  -43.9788  -61.4985  -44.2687 C   0  0  0  0  0  0  0  0  0  0  0  0
  -43.4368  -60.0640  -44.4814 C   0  0  0  0  0  0  0  0  0  0  0  0
  -44.3629  -59.1291  -45.2740 C   0  0  0  0  0  0  0  0  0  0  0  0
  -44.4023  -57.8611  -44.5973 O   0  0  0  0  0  0  0  0  0  0  0  0
  -45.8022  -59.6360  -45.3455 C   0  0  0  0  0  0  0  0  0  0  0  0
  -45.9322  -61.0761  -45.8476 C   0  0  0  0  0  0  0  0  0  0  0  0
  -46.1859  -61.0696  -47.2603 O   0  0  0  0  0  0  0  0  0  0  0  0
  -43.5037  -57.5023  -44.5303 H   0  0  0  0  0  0  0  0  0  0  0  0
  -45.4272  -60.6811  -47.7232 H   0  0  0  0  0  0  0  0  0  0  0  0
  -43.7931  -58.9063  -46.6888 C   0  0  0  0  0  0  0  0  0  0  0  0
  -43.0042  -58.0415  -47.0358 O   0  0  0  0  0  0  0  0  0  0  0  0
  -44.3074  -59.7741  -47.5914 O   0  0  0  0  0  0  0  0  0  0  0  0
  -44.9121  -60.4342  -47.3148 H   0  0  0  0  0  0  0  0  0  0  0  0
  -46.4127  -63.4260  -44.6273 C   0  0  0  0  0  0  0  0  0  0  0  0
  -45.1667  -63.3381  -45.3096 O   0  0  0  0  0  0  0  0  0  0  0  0
  -42.7980  -62.3978  -43.8234 C   0  0  0  0  0  0  0  0  0  0  0  0
  -41.5442  -61.7135  -43.2609 C   0  0  0  0  0  0  0  0  0  0  0  0
  -40.3098  -61.7922  -44.1577 C   0  0  0  0  0  0  0  0  0  0  0  0
  -39.3905  -60.7729  -43.7649 O   0  0  0  0  0  0  0  0  0  0  0  0
  -38.0656  -60.9991  -44.0159 C   0  0  0  0  0  0  0  0  0  0  0  0
  -37.3365  -60.5000  -45.0961 C   0  0  0  0  0  0  0  0  0  0  0  0
  -35.9801  -60.8124  -45.2321 C   0  0  0  0  0  0  0  0  0  0  0  0
  -35.3473  -61.6219  -44.2902 C   0  0  0  0  0  0  0  0  0  0  0  0
  -36.0697  -62.1208  -43.2093 C   0  0  0  0  0  0  0  0  0  0  0  0
  -37.4236  -61.8084  -43.0747 C   0  0  0  0  0  0  0  0  0  0  0  0
 15 16  1  0
  1 16  1  0
  1  2  1  0
  2 17  1  0
 17 18  1  0
 18 19  1  0
 19 20  1  0
 20 21  1  0
 21 22  2  0
 22 23  1  0
 23 24  2  0
 24 25  1  0
 25 26  2  0
  2  3  1  0
  3  4  1  0
  4  5  1  0
  4 11  1  0
 11 12  2  0
 11 13  1  0
  4  6  1  0
  6  7  1  0
  7  8  1  0
  7  1  1  0
 26 21  1  0
  5  9  1  0
 13 14  1  0
  8 10  1  0
M  END
> <minimizedAffinity>
-6.20621

> <CNNscore>
0.1890244484

> <CNNaffinity>
2.9185197353

> <CNN_VS>
0.5516715646

> <CNNaffinity_variance>
1.7166661024

$$$$



 26 27  0  0  0  0  0  0  0  0999 V2000
  -42.4155  -61.7882  -46.1151 C   0  0  0  0  0  0  0  0  0  0  0  0
  -43.5710  -60.8207  -45.7840 C   0  0  0  0  0  0  0  0  0  0  0  0
  -44.7688  -61.5900  -45.1757 C   0  0  0  0  0  0  0  0  0  0  0  0
  -44.3914  -62.7323  -44.2203 C   0  0  0  0  0  0  0  0  0  0  0  0
  -45.2400  -62.6451  -43.0630 O   0  0  0  0  0  0  0  0  0  0  0  0
  -42.9511  -62.6391  -43.7195 C   0  0  0  0  0  0  0  0  0  0  0  0
  -41.9107  -62.5023  -44.8338 C   0  0  0  0  0  0  0  0  0  0  0  0
  -41.3904  -63.7983  -45.1648 O   0  0  0  0  0  0  0  0  0  0  0  0
  -46.1685  -62.7005  -43.3380 H   0  0  0  0  0  0  0  0  0  0  0  0
  -42.1039  -64.3529  -45.5171 H   0  0  0  0  0  0  0  0  0  0  0  0
  -44.6430  -64.0902  -44.9051 C   0  0  0  0  0  0  0  0  0  0  0  0
  -44.2851  -64.4274  -46.0226 O   0  0  0  0  0  0  0  0  0  0  0  0
  -45.3850  -64.9222  -44.1373 O   0  0  0  0  0  0  0  0  0  0  0  0
  -45.6545  -64.6538  -43.2810 H   0  0  0  0  0  0  0  0  0  0  0  0
  -40.4938  -60.4004  -45.7782 C   0  0  0  0  0  0  0  0  0  0  0  0
  -41.3451  -61.0463  -46.7184 O   0  0  0  0  0  0  0  0  0  0  0  0
  -44.0899  -59.9996  -46.9914 C   0  0  0  0  0  0  0  0  0  0  0  0
  -44.5669  -58.5634  -46.7337 C   0  0  0  0  0  0  0  0  0  0  0  0
  -45.9551  -58.2372  -47.2818 C   0  0  0  0  0  0  0  0  0  0  0  0
  -46.1506  -58.9592  -48.4979 O   0  0  0  0  0  0  0  0  0  0  0  0
  -47.3949  -58.9035  -49.0618 C   0  0  0  0  0  0  0  0  0  0  0  0
  -47.6932  -58.4705  -50.3546 C   0  0  0  0  0  0  0  0  0  0  0  0
  -49.0171  -58.4648  -50.8053 C   0  0  0  0  0  0  0  0  0  0  0  0
  -50.0464  -58.8925  -49.9683 C   0  0  0  0  0  0  0  0  0  0  0  0
  -49.7541  -59.3276  -48.6782 C   0  0  0  0  0  0  0  0  0  0  0  0
  -48.4322  -59.3327  -48.2294 C   0  0  0  0  0  0  0  0  0  0  0  0
 15 16  1  0
  1 16  1  0
  1  2  1  0
  2 17  1  0
 17 18  1  0
 18 19  1  0
 19 20  1  0
 20 21  1  0
 21 22  2  0
 22 23  1  0
 23 24  2  0
 24 25  1  0
 25 26  2  0
  2  3  1  0
  3  4  1  0
  4  5  1  0
  4 11  1  0
 11 12  2  0
 11 13  1  0
  4  6  1  0
  6  7  1  0
  7  8  1  0
  7  1  1  0
 26 21  1  0
  5  9  1  0
 13 14  1  0
  8 10  1  0
M  END
> <minimizedAffinity>
-4.85557

> <CNNscore>
0.1884550154

> <CNNaffinity>
3.3670110703

> <CNN_VS>
0.6345301270

> <CNNaffinity_variance>
0.4021633863

$$$$
