


 30 30  0  0  0  0  0  0  0  0999 V2000
   36.1944   42.1433   -3.3079 C   0  0  0  0  0  0  0  0  0  0  0  0
   35.3754   41.9667   -5.6373 C   0  0  0  0  0  0  0  0  0  0  0  0
   36.3850   42.5132   -6.0702 O   0  0  0  0  0  0  0  0  0  0  0  0
   35.2401   41.6088   -4.3030 N   0  0  0  0  0  0  0  0  0  0  0  0
   34.5154   41.0046   -4.0217 H   0  0  0  0  0  0  0  0  0  0  0  0
   34.2116   41.5134   -6.5330 C   0  0  0  0  0  0  0  0  0  0  0  0
   33.7983   42.8112   -7.7592 S   0  0  0  0  0  0  0  0  0  0  0  0
   34.8636   43.0157   -8.5794 H   0  0  0  0  0  0  0  0  0  0  0  0
   34.4572   40.1392   -7.1797 C   0  0  0  0  0  0  0  0  0  0  0  0
   34.0008   40.0088   -8.6398 C   0  0  0  0  0  0  0  0  0  0  0  0
   32.7368   39.1590   -8.8228 C   0  0  0  0  0  0  0  0  0  0  0  0
   31.2236   37.2774   -7.9426 C   0  0  0  0  0  0  0  0  0  0  0  0
   32.4768   38.1124   -7.7357 C   0  0  0  0  0  0  0  0  0  0  0  0
   37.4645   41.2582   -3.2814 C   0  0  0  0  0  0  0  0  0  0  0  0
   38.5995   41.7142   -3.3859 O   0  0  0  0  0  0  0  0  0  0  0  0
   37.2212   39.9335   -2.9514 N   0  0  0  0  0  0  0  0  0  0  0  0
   36.3354   39.6674   -2.6139 H   0  0  0  0  0  0  0  0  0  0  0  0
   38.2748   38.9293   -3.1026 C   0  0  0  0  0  0  0  0  0  0  0  0
   38.0649   37.8040   -2.1016 C   0  0  0  0  0  0  0  0  0  0  0  0
   38.2718   38.3473   -4.5200 C   0  0  0  0  0  0  0  0  0  0  0  0
   39.1547   37.6717   -5.0248 O   0  0  0  0  0  0  0  0  0  0  0  0
   37.1191   38.5616   -5.1989 O   0  0  0  0  0  0  0  0  0  0  0  0
   36.4388   39.0794   -4.8153 H   0  0  0  0  0  0  0  0  0  0  0  0
   35.5563   42.1466   -1.9063 C   0  0  0  0  0  0  0  0  0  0  0  0
   36.4670   42.7127   -0.8420 C   0  0  0  0  0  0  0  0  0  0  0  0
   36.9503   44.0245   -0.9496 C   0  0  0  0  0  0  0  0  0  0  0  0
   37.8043   44.5466    0.0230 C   0  0  0  0  0  0  0  0  0  0  0  0
   38.1872   43.7620    1.1090 C   0  0  0  0  0  0  0  0  0  0  0  0
   37.7154   42.4557    1.2236 C   0  0  0  0  0  0  0  0  0  0  0  0
   36.8595   41.9327    0.2535 C   0  0  0  0  0  0  0  0  0  0  0  0
 12 13  1  0
 13 11  1  0
 11 10  1  0
 10  9  1  0
  9  6  1  0
  6  7  1  0
  6  2  1  0
  2  3  2  0
  2  4  1  0
  4  1  1  0
  1 24  1  0
 24 25  1  0
 25 26  2  0
 26 27  1  0
 27 28  2  0
 28 29  1  0
 29 30  2  0
  1 14  1  0
 14 15  2  0
 14 16  1  0
 16 18  1  0
 18 19  1  0
 18 20  1  0
 20 21  2  0
 20 22  1  0
 30 25  1  0
  7  8  1  0
  4  5  1  0
 16 17  1  0
 22 23  1  0
M  END
> <minimizedAffinity>
-8.11041

> <CNNscore>
0.9377549887

> <CNNaffinity>
7.5957598686

> <CNN_VS>
7.1229615211

> <CNNaffinity_variance>
0.0643061772

$$$$



 30 30  0  0  0  0  0  0  0  0999 V2000
   36.3319   41.6863   -3.1599 C   0  0  0  0  0  0  0  0  0  0  0  0
   38.1726   40.0328   -3.2384 C   0  0  0  0  0  0  0  0  0  0  0  0
   38.9518   40.8699   -3.6826 O   0  0  0  0  0  0  0  0  0  0  0  0
   36.8928   40.3626   -2.8138 N   0  0  0  0  0  0  0  0  0  0  0  0
   36.3634   39.7210   -2.2871 H   0  0  0  0  0  0  0  0  0  0  0  0
   38.5603   38.5661   -2.9923 C   0  0  0  0  0  0  0  0  0  0  0  0
   40.3176   38.2817   -3.4281 S   0  0  0  0  0  0  0  0  0  0  0  0
   41.1123   39.0349   -2.6214 H   0  0  0  0  0  0  0  0  0  0  0  0
   38.2140   38.0883   -1.5714 C   0  0  0  0  0  0  0  0  0  0  0  0
   39.1679   37.0410   -0.9792 C   0  0  0  0  0  0  0  0  0  0  0  0
   38.5980   35.6167   -0.9675 C   0  0  0  0  0  0  0  0  0  0  0  0
   40.4161   35.1961    0.7995 C   0  0  0  0  0  0  0  0  0  0  0  0
   39.1640   34.6836    0.1065 C   0  0  0  0  0  0  0  0  0  0  0  0
   36.2559   41.8297   -4.6996 C   0  0  0  0  0  0  0  0  0  0  0  0
   36.9002   42.6661   -5.3259 O   0  0  0  0  0  0  0  0  0  0  0  0
   35.5387   40.8207   -5.3245 N   0  0  0  0  0  0  0  0  0  0  0  0
   35.2652   40.0250   -4.8133 H   0  0  0  0  0  0  0  0  0  0  0  0
   35.1864   40.9331   -6.7403 C   0  0  0  0  0  0  0  0  0  0  0  0
   34.1845   39.8513   -7.1120 C   0  0  0  0  0  0  0  0  0  0  0  0
   34.5771   42.3064   -7.0416 C   0  0  0  0  0  0  0  0  0  0  0  0
   34.6966   42.9370   -8.0803 O   0  0  0  0  0  0  0  0  0  0  0  0
   33.7696   42.7758   -6.0602 O   0  0  0  0  0  0  0  0  0  0  0  0
   33.6749   42.2951   -5.2615 H   0  0  0  0  0  0  0  0  0  0  0  0
   37.2246   42.8071   -2.5954 C   0  0  0  0  0  0  0  0  0  0  0  0
   37.3951   42.7302   -1.0962 C   0  0  0  0  0  0  0  0  0  0  0  0
   36.5235   41.9488   -0.3246 C   0  0  0  0  0  0  0  0  0  0  0  0
   36.6675   41.8869    1.0623 C   0  0  0  0  0  0  0  0  0  0  0  0
   37.6800   42.6086    1.6914 C   0  0  0  0  0  0  0  0  0  0  0  0
   38.5495   43.3912    0.9341 C   0  0  0  0  0  0  0  0  0  0  0  0
   38.4088   43.4523   -0.4529 C   0  0  0  0  0  0  0  0  0  0  0  0
 12 13  1  0
 13 11  1  0
 11 10  1  0
 10  9  1  0
  9  6  1  0
  6  7  1  0
  6  2  1  0
  2  3  2  0
  2  4  1  0
  4  1  1  0
  1 24  1  0
 24 25  1  0
 25 26  2  0
 26 27  1  0
 27 28  2  0
 28 29  1  0
 29 30  2  0
  1 14  1  0
 14 15  2  0
 14 16  1  0
 16 18  1  0
 18 19  1  0
 18 20  1  0
 20 21  2  0
 20 22  1  0
 30 25  1  0
  7  8  1  0
  4  5  1  0
 16 17  1  0
 22 23  1  0
M  END
> <minimizedAffinity>
-7.79109

> <CNNscore>
0.8785831332

> <CNNaffinity>
6.9644217491

> <CNN_VS>
6.1188235283

> <CNNaffinity_variance>
0.0157663822

$$$$



 30 30  0  0  0  0  0  0  0  0999 V2000
   37.4109   42.5081   -3.8349 C   0  0  0  0  0  0  0  0  0  0  0  0
   35.5163   42.0141   -5.3497 C   0  0  0  0  0  0  0  0  0  0  0  0
   34.7349   41.9456   -4.4062 O   0  0  0  0  0  0  0  0  0  0  0  0
   36.8333   42.4238   -5.1935 N   0  0  0  0  0  0  0  0  0  0  0  0
   37.3779   42.6561   -5.9801 H   0  0  0  0  0  0  0  0  0  0  0  0
   35.0995   41.7737   -6.8093 C   0  0  0  0  0  0  0  0  0  0  0  0
   34.3222   40.1244   -6.9948 S   0  0  0  0  0  0  0  0  0  0  0  0
   33.1843   40.0734   -6.2518 H   0  0  0  0  0  0  0  0  0  0  0  0
   34.2296   42.9094   -7.3756 C   0  0  0  0  0  0  0  0  0  0  0  0
   33.9746   42.8502   -8.8886 C   0  0  0  0  0  0  0  0  0  0  0  0
   32.8235   43.7477   -9.3608 C   0  0  0  0  0  0  0  0  0  0  0  0
   33.0245   42.7607  -11.7252 C   0  0  0  0  0  0  0  0  0  0  0  0
   32.7441   43.9866  -10.8712 C   0  0  0  0  0  0  0  0  0  0  0  0
   38.1425   41.1852   -3.5005 C   0  0  0  0  0  0  0  0  0  0  0  0
   39.1138   41.1290   -2.7519 O   0  0  0  0  0  0  0  0  0  0  0  0
   37.5004   40.0511   -3.9742 N   0  0  0  0  0  0  0  0  0  0  0  0
   36.5878   40.1202   -4.3370 H   0  0  0  0  0  0  0  0  0  0  0  0
   38.1729   38.7520   -3.9374 C   0  0  0  0  0  0  0  0  0  0  0  0
   37.9327   38.0825   -2.5935 C   0  0  0  0  0  0  0  0  0  0  0  0
   37.6533   37.8390   -5.0529 C   0  0  0  0  0  0  0  0  0  0  0  0
   37.8545   36.6391   -5.1562 O   0  0  0  0  0  0  0  0  0  0  0  0
   36.8280   38.4594   -5.9301 O   0  0  0  0  0  0  0  0  0  0  0  0
   36.6707   39.3800   -5.8546 H   0  0  0  0  0  0  0  0  0  0  0  0
   36.2978   42.7418   -2.7966 C   0  0  0  0  0  0  0  0  0  0  0  0
   36.8149   42.8080   -1.3785 C   0  0  0  0  0  0  0  0  0  0  0  0
   37.6218   43.8791   -0.9694 C   0  0  0  0  0  0  0  0  0  0  0  0
   38.1147   43.9367    0.3351 C   0  0  0  0  0  0  0  0  0  0  0  0
   37.8101   42.9228    1.2412 C   0  0  0  0  0  0  0  0  0  0  0  0
   37.0118   41.8519    0.8438 C   0  0  0  0  0  0  0  0  0  0  0  0
   36.5161   41.7938   -0.4593 C   0  0  0  0  0  0  0  0  0  0  0  0
 12 13  1  0
 13 11  1  0
 11 10  1  0
 10  9  1  0
  9  6  1  0
  6  7  1  0
  6  2  1  0
  2  3  2  0
  2  4  1  0
  4  1  1  0
  1 24  1  0
 24 25  1  0
 25 26  2  0
 26 27  1  0
 27 28  2  0
 28 29  1  0
 29 30  2  0
  1 14  1  0
 14 15  2  0
 14 16  1  0
 16 18  1  0
 18 19  1  0
 18 20  1  0
 20 21  2  0
 20 22  1  0
 30 25  1  0
  7  8  1  0
  4  5  1  0
 16 17  1  0
 22 23  1  0
M  END
> <minimizedAffinity>
-7.63593

> <CNNscore>
0.8021398187

> <CNNaffinity>
6.9905533791

> <CNN_VS>
5.6074013710

> <CNNaffinity_variance>
0.0867411420

$$$$



 30 30  0  0  0  0  0  0  0  0999 V2000
   36.0942   41.7560   -3.0960 C   0  0  0  0  0  0  0  0  0  0  0  0
   38.1579   40.3888   -3.0783 C   0  0  0  0  0  0  0  0  0  0  0  0
   38.8033   41.2941   -3.5970 O   0  0  0  0  0  0  0  0  0  0  0  0
   36.8455   40.5594   -2.6596 N   0  0  0  0  0  0  0  0  0  0  0  0
   36.4187   39.8900   -2.0774 H   0  0  0  0  0  0  0  0  0  0  0  0
   38.7584   39.0182   -2.7279 C   0  0  0  0  0  0  0  0  0  0  0  0
   37.6590   38.1071   -1.5790 S   0  0  0  0  0  0  0  0  0  0  0  0
   36.4672   37.8654   -2.1879 H   0  0  0  0  0  0  0  0  0  0  0  0
   39.1324   38.1953   -3.9729 C   0  0  0  0  0  0  0  0  0  0  0  0
   40.5364   37.5741   -3.9530 C   0  0  0  0  0  0  0  0  0  0  0  0
   41.5792   38.4175   -3.2082 C   0  0  0  0  0  0  0  0  0  0  0  0
   43.9575   39.3008   -3.6182 C   0  0  0  0  0  0  0  0  0  0  0  0
   43.0425   38.0910   -3.5191 C   0  0  0  0  0  0  0  0  0  0  0  0
   36.0991   41.8346   -4.6423 C   0  0  0  0  0  0  0  0  0  0  0  0
   36.7906   42.6321   -5.2691 O   0  0  0  0  0  0  0  0  0  0  0  0
   35.3948   40.8125   -5.2605 N   0  0  0  0  0  0  0  0  0  0  0  0
   35.0802   40.0444   -4.7311 H   0  0  0  0  0  0  0  0  0  0  0  0
   35.1170   40.8704   -6.6960 C   0  0  0  0  0  0  0  0  0  0  0  0
   34.1579   39.7556   -7.0831 C   0  0  0  0  0  0  0  0  0  0  0  0
   34.4978   42.2195   -7.0760 C   0  0  0  0  0  0  0  0  0  0  0  0
   34.5588   42.7594   -8.1695 O   0  0  0  0  0  0  0  0  0  0  0  0
   33.7523   42.7778   -6.0921 O   0  0  0  0  0  0  0  0  0  0  0  0
   33.7026   42.3669   -5.2515 H   0  0  0  0  0  0  0  0  0  0  0  0
   36.7452   43.0304   -2.5271 C   0  0  0  0  0  0  0  0  0  0  0  0
   37.1063   42.9092   -1.0651 C   0  0  0  0  0  0  0  0  0  0  0  0
   38.2694   43.5168   -0.5713 C   0  0  0  0  0  0  0  0  0  0  0  0
   38.6153   43.3946    0.7754 C   0  0  0  0  0  0  0  0  0  0  0  0
   37.8054   42.6606    1.6397 C   0  0  0  0  0  0  0  0  0  0  0  0
   36.6490   42.0496    1.1584 C   0  0  0  0  0  0  0  0  0  0  0  0
   36.3002   42.1728   -0.1871 C   0  0  0  0  0  0  0  0  0  0  0  0
 12 13  1  0
 13 11  1  0
 11 10  1  0
 10  9  1  0
  9  6  1  0
  6  7  1  0
  6  2  1  0
  2  3  2  0
  2  4  1  0
  4  1  1  0
  1 24  1  0
 24 25  1  0
 25 26  2  0
 26 27  1  0
 27 28  2  0
 28 29  1  0
 29 30  2  0
  1 14  1  0
 14 15  2  0
 14 16  1  0
 16 18  1  0
 18 19  1  0
 18 20  1  0
 20 21  2  0
 20 22  1  0
 30 25  1  0
  7  8  1  0
  4  5  1  0
 16 17  1  0
 22 23  1  0
M  END
> <minimizedAffinity>
-7.80818

> <CNNscore>
0.7192231417

> <CNNaffinity>
6.7904434204

> <CNN_VS>
4.8838438988

> <CNNaffinity_variance>
0.0242949203

$$$$



 30 30  0  0  0  0  0  0  0  0999 V2000
   36.7052   41.5641   -4.1213 C   0  0  0  0  0  0  0  0  0  0  0  0
   35.4992   41.7397   -6.2760 C   0  0  0  0  0  0  0  0  0  0  0  0
   35.8170   42.9185   -6.3972 O   0  0  0  0  0  0  0  0  0  0  0  0
   36.0000   40.9374   -5.2599 N   0  0  0  0  0  0  0  0  0  0  0  0
   35.8866   39.9602   -5.2970 H   0  0  0  0  0  0  0  0  0  0  0  0
   34.6174   40.9950   -7.2909 C   0  0  0  0  0  0  0  0  0  0  0  0
   33.9959   39.4260   -6.5762 S   0  0  0  0  0  0  0  0  0  0  0  0
   33.2077   39.6981   -5.5018 H   0  0  0  0  0  0  0  0  0  0  0  0
   33.4931   41.8757   -7.8629 C   0  0  0  0  0  0  0  0  0  0  0  0
   33.4620   41.9903   -9.3937 C   0  0  0  0  0  0  0  0  0  0  0  0
   33.5765   43.4296   -9.9122 C   0  0  0  0  0  0  0  0  0  0  0  0
   33.3541   45.0057  -11.9298 C   0  0  0  0  0  0  0  0  0  0  0  0
   32.9403   43.6957  -11.2793 C   0  0  0  0  0  0  0  0  0  0  0  0
   37.7990   40.6018   -3.5970 C   0  0  0  0  0  0  0  0  0  0  0  0
   38.8514   40.9928   -3.1003 O   0  0  0  0  0  0  0  0  0  0  0  0
   37.4131   39.2701   -3.5727 N   0  0  0  0  0  0  0  0  0  0  0  0
   36.4708   39.0302   -3.7265 H   0  0  0  0  0  0  0  0  0  0  0  0
   38.4001   38.2198   -3.3194 C   0  0  0  0  0  0  0  0  0  0  0  0
   39.8024   38.7606   -3.5502 C   0  0  0  0  0  0  0  0  0  0  0  0
   38.2907   37.7068   -1.8797 C   0  0  0  0  0  0  0  0  0  0  0  0
   39.2153   37.3381   -1.1726 O   0  0  0  0  0  0  0  0  0  0  0  0
   37.0383   37.7726   -1.3673 O   0  0  0  0  0  0  0  0  0  0  0  0
   36.3258   38.0550   -1.9063 H   0  0  0  0  0  0  0  0  0  0  0  0
   35.7143   41.8653   -2.9816 C   0  0  0  0  0  0  0  0  0  0  0  0
   36.3642   42.5333   -1.7925 C   0  0  0  0  0  0  0  0  0  0  0  0
   36.4620   41.8576   -0.5679 C   0  0  0  0  0  0  0  0  0  0  0  0
   37.0476   42.4762    0.5377 C   0  0  0  0  0  0  0  0  0  0  0  0
   37.5364   43.7768    0.4316 C   0  0  0  0  0  0  0  0  0  0  0  0
   37.4410   44.4588   -0.7801 C   0  0  0  0  0  0  0  0  0  0  0  0
   36.8581   43.8409   -1.8872 C   0  0  0  0  0  0  0  0  0  0  0  0
 12 13  1  0
 13 11  1  0
 11 10  1  0
 10  9  1  0
  9  6  1  0
  6  7  1  0
  6  2  1  0
  2  3  2  0
  2  4  1  0
  4  1  1  0
  1 24  1  0
 24 25  1  0
 25 26  2  0
 26 27  1  0
 27 28  2  0
 28 29  1  0
 29 30  2  0
  1 14  1  0
 14 15  2  0
 14 16  1  0
 16 18  1  0
 18 19  1  0
 18 20  1  0
 20 21  2  0
 20 22  1  0
 30 25  1  0
  7  8  1  0
  4  5  1  0
 16 17  1  0
 22 23  1  0
M  END
> <minimizedAffinity>
-7.76382

> <CNNscore>
0.6968591213

> <CNNaffinity>
7.0749220848

> <CNN_VS>
4.9302239418

> <CNNaffinity_variance>
0.1559989452

$$$$



 30 30  0  0  0  0  0  0  0  0999 V2000
   32.8071   41.4079  -10.1912 C   0  0  0  0  0  0  0  0  0  0  0  0
   30.9117   40.2514  -11.2857 C   0  0  0  0  0  0  0  0  0  0  0  0
   31.6609   39.4105  -11.7723 O   0  0  0  0  0  0  0  0  0  0  0  0
   31.3546   41.2011  -10.3754 N   0  0  0  0  0  0  0  0  0  0  0  0
   30.7076   41.7322   -9.8571 H   0  0  0  0  0  0  0  0  0  0  0  0
   29.3948   40.2735  -11.5323 C   0  0  0  0  0  0  0  0  0  0  0  0
   28.9953   41.2921  -13.0026 S   0  0  0  0  0  0  0  0  0  0  0  0
   29.5609   40.7355  -14.1070 H   0  0  0  0  0  0  0  0  0  0  0  0
   28.7812   38.8643  -11.5992 C   0  0  0  0  0  0  0  0  0  0  0  0
   28.4283   38.2359  -10.2435 C   0  0  0  0  0  0  0  0  0  0  0  0
   29.6263   37.6117   -9.5166 C   0  0  0  0  0  0  0  0  0  0  0  0
   27.9429   35.8914   -8.6158 C   0  0  0  0  0  0  0  0  0  0  0  0
   29.2848   36.5823   -8.4356 C   0  0  0  0  0  0  0  0  0  0  0  0
   33.2538   40.7770   -8.8497 C   0  0  0  0  0  0  0  0  0  0  0  0
   33.0580   39.5986   -8.5670 O   0  0  0  0  0  0  0  0  0  0  0  0
   34.0484   41.6073   -8.0737 N   0  0  0  0  0  0  0  0  0  0  0  0
   34.4028   42.4429   -8.4551 H   0  0  0  0  0  0  0  0  0  0  0  0
   34.3626   41.2473   -6.6906 C   0  0  0  0  0  0  0  0  0  0  0  0
   35.2708   40.0279   -6.6666 C   0  0  0  0  0  0  0  0  0  0  0  0
   35.0603   42.4069   -5.9720 C   0  0  0  0  0  0  0  0  0  0  0  0
   35.3253   42.4635   -4.7815 O   0  0  0  0  0  0  0  0  0  0  0  0
   35.4760   43.3952   -6.8003 O   0  0  0  0  0  0  0  0  0  0  0  0
   35.2749   43.3558   -7.7146 H   0  0  0  0  0  0  0  0  0  0  0  0
   33.1325   42.9130  -10.1704 C   0  0  0  0  0  0  0  0  0  0  0  0
   32.9689   43.5732  -11.5195 C   0  0  0  0  0  0  0  0  0  0  0  0
   32.9522   44.9711  -11.6253 C   0  0  0  0  0  0  0  0  0  0  0  0
   32.7858   45.5855  -12.8674 C   0  0  0  0  0  0  0  0  0  0  0  0
   32.6299   44.8095  -14.0142 C   0  0  0  0  0  0  0  0  0  0  0  0
   32.6414   43.4191  -13.9197 C   0  0  0  0  0  0  0  0  0  0  0  0
   32.8102   42.8030  -12.6790 C   0  0  0  0  0  0  0  0  0  0  0  0
 12 13  1  0
 13 11  1  0
 11 10  1  0
 10  9  1  0
  9  6  1  0
  6  7  1  0
  6  2  1  0
  2  3  2  0
  2  4  1  0
  4  1  1  0
  1 24  1  0
 24 25  1  0
 25 26  2  0
 26 27  1  0
 27 28  2  0
 28 29  1  0
 29 30  2  0
  1 14  1  0
 14 15  2  0
 14 16  1  0
 16 18  1  0
 18 19  1  0
 18 20  1  0
 20 21  2  0
 20 22  1  0
 30 25  1  0
  7  8  1  0
  4  5  1  0
 16 17  1  0
 22 23  1  0
M  END
> <minimizedAffinity>
-7.06737

> <CNNscore>
0.6794393659

> <CNNaffinity>
6.1668276787

> <CNN_VS>
4.1899852753

> <CNNaffinity_variance>
0.0786753073

$$$$



 30 30  0  0  0  0  0  0  0  0999 V2000
   37.0954   40.8773   -3.6582 C   0  0  0  0  0  0  0  0  0  0  0  0
   35.4440   41.6715   -5.3227 C   0  0  0  0  0  0  0  0  0  0  0  0
   35.4503   42.8001   -4.8414 O   0  0  0  0  0  0  0  0  0  0  0  0
   36.3225   40.6818   -4.9036 N   0  0  0  0  0  0  0  0  0  0  0  0
   36.4300   39.8573   -5.4307 H   0  0  0  0  0  0  0  0  0  0  0  0
   34.5573   41.2658   -6.5106 C   0  0  0  0  0  0  0  0  0  0  0  0
   34.2278   42.7086   -7.5916 S   0  0  0  0  0  0  0  0  0  0  0  0
   35.3990   43.1588   -8.1163 H   0  0  0  0  0  0  0  0  0  0  0  0
   35.1124   40.0568   -7.2834 C   0  0  0  0  0  0  0  0  0  0  0  0
   34.0692   39.2311   -8.0498 C   0  0  0  0  0  0  0  0  0  0  0  0
   34.0890   39.4576   -9.5669 C   0  0  0  0  0  0  0  0  0  0  0  0
   33.0533   41.3525  -10.9604 C   0  0  0  0  0  0  0  0  0  0  0  0
   32.8227   40.0795  -10.1623 C   0  0  0  0  0  0  0  0  0  0  0  0
   37.8373   39.5669   -3.2983 C   0  0  0  0  0  0  0  0  0  0  0  0
   37.8092   39.0690   -2.1765 O   0  0  0  0  0  0  0  0  0  0  0  0
   38.3857   38.9119   -4.3906 N   0  0  0  0  0  0  0  0  0  0  0  0
   38.1567   39.2038   -5.3026 H   0  0  0  0  0  0  0  0  0  0  0  0
   39.3030   37.7889   -4.1942 C   0  0  0  0  0  0  0  0  0  0  0  0
   39.5911   37.1163   -5.5272 C   0  0  0  0  0  0  0  0  0  0  0  0
   40.6221   38.2659   -3.5773 C   0  0  0  0  0  0  0  0  0  0  0  0
   41.2531   39.2595   -3.9019 O   0  0  0  0  0  0  0  0  0  0  0  0
   41.0332   37.5249   -2.5202 O   0  0  0  0  0  0  0  0  0  0  0  0
   40.5520   36.7616   -2.2677 H   0  0  0  0  0  0  0  0  0  0  0  0
   36.1529   41.2542   -2.5000 C   0  0  0  0  0  0  0  0  0  0  0  0
   36.7329   42.3047   -1.5821 C   0  0  0  0  0  0  0  0  0  0  0  0
   36.9358   43.6129   -2.0438 C   0  0  0  0  0  0  0  0  0  0  0  0
   37.4857   44.5830   -1.2043 C   0  0  0  0  0  0  0  0  0  0  0  0
   37.8423   44.2540    0.1019 C   0  0  0  0  0  0  0  0  0  0  0  0
   37.6482   42.9557    0.5696 C   0  0  0  0  0  0  0  0  0  0  0  0
   37.0961   41.9851   -0.2673 C   0  0  0  0  0  0  0  0  0  0  0  0
 12 13  1  0
 13 11  1  0
 11 10  1  0
 10  9  1  0
  9  6  1  0
  6  7  1  0
  6  2  1  0
  2  3  2  0
  2  4  1  0
  4  1  1  0
  1 24  1  0
 24 25  1  0
 25 26  2  0
 26 27  1  0
 27 28  2  0
 28 29  1  0
 29 30  2  0
  1 14  1  0
 14 15  2  0
 14 16  1  0
 16 18  1  0
 18 19  1  0
 18 20  1  0
 20 21  2  0
 20 22  1  0
 30 25  1  0
  7  8  1  0
  4  5  1  0
 16 17  1  0
 22 23  1  0
M  END
> <minimizedAffinity>
-6.98049

> <CNNscore>
0.6517016292

> <CNNaffinity>
6.5987267494

> <CNN_VS>
4.3004012108

> <CNNaffinity_variance>
0.2521789074

$$$$



 30 30  0  0  0  0  0  0  0  0999 V2000
   36.7220   41.6594   -4.0307 C   0  0  0  0  0  0  0  0  0  0  0  0
   35.1204   41.9358   -5.8980 C   0  0  0  0  0  0  0  0  0  0  0  0
   35.1345   43.1565   -5.7749 O   0  0  0  0  0  0  0  0  0  0  0  0
   35.9733   41.1083   -5.1807 N   0  0  0  0  0  0  0  0  0  0  0  0
   36.0789   40.1632   -5.4352 H   0  0  0  0  0  0  0  0  0  0  0  0
   34.2532   41.2023   -6.9334 C   0  0  0  0  0  0  0  0  0  0  0  0
   33.5388   42.3894   -8.1332 S   0  0  0  0  0  0  0  0  0  0  0  0
   34.5418   42.9944   -8.8242 H   0  0  0  0  0  0  0  0  0  0  0  0
   34.9946   40.0394   -7.6153 C   0  0  0  0  0  0  0  0  0  0  0  0
   34.2439   38.7002   -7.6310 C   0  0  0  0  0  0  0  0  0  0  0  0
   33.9050   38.1936   -9.0388 C   0  0  0  0  0  0  0  0  0  0  0  0
   36.2036   37.1549   -9.5309 C   0  0  0  0  0  0  0  0  0  0  0  0
   35.0877   38.0724  -10.0038 C   0  0  0  0  0  0  0  0  0  0  0  0
   37.8035   40.6457   -3.5835 C   0  0  0  0  0  0  0  0  0  0  0  0
   38.8547   40.9829   -3.0465 O   0  0  0  0  0  0  0  0  0  0  0  0
   37.4067   39.3204   -3.6779 N   0  0  0  0  0  0  0  0  0  0  0  0
   36.4638   39.1030   -3.8593 H   0  0  0  0  0  0  0  0  0  0  0  0
   38.3829   38.2435   -3.5091 C   0  0  0  0  0  0  0  0  0  0  0  0
   39.7869   38.7748   -3.7513 C   0  0  0  0  0  0  0  0  0  0  0  0
   38.3055   37.6560   -2.0960 C   0  0  0  0  0  0  0  0  0  0  0  0
   39.2524   37.3534   -1.3872 O   0  0  0  0  0  0  0  0  0  0  0  0
   37.0451   37.5675   -1.6068 O   0  0  0  0  0  0  0  0  0  0  0  0
   36.3155   37.7987   -2.1472 H   0  0  0  0  0  0  0  0  0  0  0  0
   35.7672   41.9266   -2.8523 C   0  0  0  0  0  0  0  0  0  0  0  0
   36.4445   42.6012   -1.6823 C   0  0  0  0  0  0  0  0  0  0  0  0
   36.6090   41.9168   -0.4698 C   0  0  0  0  0  0  0  0  0  0  0  0
   37.2201   42.5411    0.6187 C   0  0  0  0  0  0  0  0  0  0  0  0
   37.6679   43.8559    0.5075 C   0  0  0  0  0  0  0  0  0  0  0  0
   37.5060   44.5465   -0.6920 C   0  0  0  0  0  0  0  0  0  0  0  0
   36.8976   43.9231   -1.7822 C   0  0  0  0  0  0  0  0  0  0  0  0
 12 13  1  0
 13 11  1  0
 11 10  1  0
 10  9  1  0
  9  6  1  0
  6  7  1  0
  6  2  1  0
  2  3  2  0
  2  4  1  0
  4  1  1  0
  1 24  1  0
 24 25  1  0
 25 26  2  0
 26 27  1  0
 27 28  2  0
 28 29  1  0
 29 30  2  0
  1 14  1  0
 14 15  2  0
 14 16  1  0
 16 18  1  0
 18 19  1  0
 18 20  1  0
 20 21  2  0
 20 22  1  0
 30 25  1  0
  7  8  1  0
  4  5  1  0
 16 17  1  0
 22 23  1  0
M  END
> <minimizedAffinity>
-7.22850

> <CNNscore>
0.5598139167

> <CNNaffinity>
6.8456935883

> <CNN_VS>
3.8323144913

> <CNNaffinity_variance>
0.2554108799

$$$$



 30 30  0  0  0  0  0  0  0  0999 V2000
   34.2130   41.3303   -7.0309 C   0  0  0  0  0  0  0  0  0  0  0  0
   33.2980   42.8564   -8.7519 C   0  0  0  0  0  0  0  0  0  0  0  0
   32.5010   43.3362   -7.9521 O   0  0  0  0  0  0  0  0  0  0  0  0
   34.2841   41.9580   -8.3679 N   0  0  0  0  0  0  0  0  0  0  0  0
   35.0240   41.7408   -8.9799 H   0  0  0  0  0  0  0  0  0  0  0  0
   33.3717   43.2809  -10.2272 C   0  0  0  0  0  0  0  0  0  0  0  0
   32.9372   41.8787  -11.3243 S   0  0  0  0  0  0  0  0  0  0  0  0
   31.6511   41.5026  -11.0915 H   0  0  0  0  0  0  0  0  0  0  0  0
   32.5501   44.5471  -10.5249 C   0  0  0  0  0  0  0  0  0  0  0  0
   31.8693   44.5808  -11.9007 C   0  0  0  0  0  0  0  0  0  0  0  0
   32.5867   45.4656  -12.9282 C   0  0  0  0  0  0  0  0  0  0  0  0
   32.9627   45.5609  -15.4687 C   0  0  0  0  0  0  0  0  0  0  0  0
   33.0840   44.7512  -14.1879 C   0  0  0  0  0  0  0  0  0  0  0  0
   35.0941   42.1268   -6.0377 C   0  0  0  0  0  0  0  0  0  0  0  0
   35.5099   43.2579   -6.2713 O   0  0  0  0  0  0  0  0  0  0  0  0
   35.2235   41.5275   -4.7939 N   0  0  0  0  0  0  0  0  0  0  0  0
   34.6574   40.7567   -4.5601 H   0  0  0  0  0  0  0  0  0  0  0  0
   36.1976   42.0355   -3.8272 C   0  0  0  0  0  0  0  0  0  0  0  0
   35.5773   42.0755   -2.4394 C   0  0  0  0  0  0  0  0  0  0  0  0
   37.4450   41.1461   -3.7938 C   0  0  0  0  0  0  0  0  0  0  0  0
   38.5135   41.4207   -3.2707 O   0  0  0  0  0  0  0  0  0  0  0  0
   37.2582   39.9183   -4.3353 O   0  0  0  0  0  0  0  0  0  0  0  0
   36.4399   39.7033   -4.7378 H   0  0  0  0  0  0  0  0  0  0  0  0
   34.7197   39.8775   -7.0970 C   0  0  0  0  0  0  0  0  0  0  0  0
   34.2183   39.1299   -8.3103 C   0  0  0  0  0  0  0  0  0  0  0  0
   35.1071   38.7578   -9.3288 C   0  0  0  0  0  0  0  0  0  0  0  0
   34.6460   38.0807  -10.4589 C   0  0  0  0  0  0  0  0  0  0  0  0
   33.2927   37.7734  -10.5841 C   0  0  0  0  0  0  0  0  0  0  0  0
   32.4002   38.1419   -9.5792 C   0  0  0  0  0  0  0  0  0  0  0  0
   32.8597   38.8166   -8.4475 C   0  0  0  0  0  0  0  0  0  0  0  0
 12 13  1  0
 13 11  1  0
 11 10  1  0
 10  9  1  0
  9  6  1  0
  6  7  1  0
  6  2  1  0
  2  3  2  0
  2  4  1  0
  4  1  1  0
  1 24  1  0
 24 25  1  0
 25 26  2  0
 26 27  1  0
 27 28  2  0
 28 29  1  0
 29 30  2  0
  1 14  1  0
 14 15  2  0
 14 16  1  0
 16 18  1  0
 18 19  1  0
 18 20  1  0
 20 21  2  0
 20 22  1  0
 30 25  1  0
  7  8  1  0
  4  5  1  0
 16 17  1  0
 22 23  1  0
M  END
> <minimizedAffinity>
-7.19772

> <CNNscore>
0.5226585865

> <CNNaffinity>
6.8445129395

> <CNN_VS>
3.5773434639

> <CNNaffinity_variance>
0.1315084249

$$$$
