


 36 38  0  0  0  0  0  0  0  0999 V2000
   12.3158   53.9086   89.7350 C   0  0  0  0  0  0  0  0  0  0  0  0
   10.8423   53.8656   89.3261 C   0  0  0  0  0  0  0  0  0  0  0  0
   10.2666   52.6877   90.0912 C   0  0  0  0  0  0  0  0  0  0  0  0
   11.0347   52.6583   91.3353 N   0  0  0  0  0  0  0  0  0  0  0  0
   10.5485   51.9556   92.4150 C   0  0  0  0  0  0  0  0  0  0  0  0
    9.4029   51.4829   92.3499 O   0  0  0  0  0  0  0  0  0  0  0  0
   12.3445   53.2604   91.1307 C   0  0  0  0  0  0  0  0  0  0  0  0
   10.4805   51.3394   89.3713 C   0  0  0  0  0  0  0  0  0  0  0  0
   10.3967   50.2531   89.9423 O   0  0  0  0  0  0  0  0  0  0  0  0
   10.6542   51.4951   88.0014 N   0  0  0  0  0  0  0  0  0  0  0  0
   10.8991   52.3808   87.6480 H   0  0  0  0  0  0  0  0  0  0  0  0
   10.4857   50.3942   87.0810 C   0  0  0  0  0  0  0  0  0  0  0  0
   11.4351   50.5682   85.9227 C   0  0  0  0  0  0  0  0  0  0  0  0
   11.9066   49.4407   85.2351 C   0  0  0  0  0  0  0  0  0  0  0  0
   12.6828   49.5829   84.0832 C   0  0  0  0  0  0  0  0  0  0  0  0
   13.0083   50.8570   83.5994 C   0  0  0  0  0  0  0  0  0  0  0  0
   12.5631   51.9845   84.2979 C   0  0  0  0  0  0  0  0  0  0  0  0
   11.7672   51.8448   85.4406 C   0  0  0  0  0  0  0  0  0  0  0  0
   13.7777   51.0064   82.3665 C   0  0  0  0  0  0  0  0  0  0  0  0
   15.3318   51.7433   82.4016 S   0  0  0  0  0  0  0  0  0  0  0  0
   15.4441   51.5481   80.7027 C   0  0  0  0  0  0  0  0  0  0  0  0
   14.4275   50.9561   80.1160 N   0  0  0  0  0  0  0  0  0  0  0  0
   13.4624   50.6386   81.0654 C   0  0  0  0  0  0  0  0  0  0  0  0
   12.2143   49.9815   80.5925 C   0  0  0  0  0  0  0  0  0  0  0  0
   14.2076   55.3371   89.8232 C   0  0  0  0  0  0  0  0  0  0  0  0
   12.7862   55.2559   89.8203 O   0  0  0  0  0  0  0  0  0  0  0  0
   11.3282   51.8562   93.7592 C   0  0  0  0  0  0  0  0  0  0  0  0
   12.2311   50.7038   93.8570 N   0  0  0  0  0  0  0  0  0  0  0  0
   12.8886   50.2028   92.7538 C   0  0  0  0  0  0  0  0  0  0  0  0
   13.7034   48.9676   93.0301 C   0  0  0  0  0  0  0  0  0  0  0  0
   12.8049   50.6937   91.6358 O   0  0  0  0  0  0  0  0  0  0  0  0
   12.3709   50.2773   94.7333 H   0  0  0  0  0  0  0  0  0  0  0  0
   12.0398   53.1922   94.1645 C   0  0  0  0  0  0  0  0  0  0  0  0
   13.3018   53.4255   93.3046 C   0  0  0  0  0  0  0  0  0  0  0  0
   11.0846   54.3804   93.9057 C   0  0  0  0  0  0  0  0  0  0  0  0
   12.4485   53.2245   95.6437 C   0  0  0  0  0  0  0  0  0  0  0  0
 25 26  1  0
  1 26  1  0
  1  2  1  0
  2  3  1  0
  3  8  1  0
  8  9  2  0
  8 10  1  0
 10 12  1  0
 12 13  1  0
 13 14  2  0
 14 15  1  0
 15 16  2  0
 16 19  1  0
 19 20  1  0
 20 21  1  0
 21 22  2  0
 22 23  1  0
 23 24  1  0
 16 17  1  0
 17 18  2  0
  3  4  1  0
  4  5  1  0
  5  6  2  0
  5 27  1  0
 27 28  1  0
 28 29  1  0
 29 30  1  0
 29 31  2  0
 27 33  1  0
 33 34  1  0
 33 35  1  0
 33 36  1  0
  4  7  1  0
  7  1  1  0
 18 13  1  0
 23 19  2  0
 10 11  1  0
 28 32  1  0
M  END
> <minimizedAffinity>
-7.28098

> <CNNscore>
0.8123990297

> <CNNaffinity>
6.2970471382

> <CNN_VS>
5.1157150269

> <CNNaffinity_variance>
0.5901531577

$$$$



 36 38  0  0  0  0  0  0  0  0999 V2000
   13.3596   53.7651   90.8605 C   0  0  0  0  0  0  0  0  0  0  0  0
   12.2399   54.2995   89.9656 C   0  0  0  0  0  0  0  0  0  0  0  0
   10.9694   53.7037   90.5445 C   0  0  0  0  0  0  0  0  0  0  0  0
   11.2405   53.6052   91.9782 N   0  0  0  0  0  0  0  0  0  0  0  0
   10.1917   53.4498   92.8567 C   0  0  0  0  0  0  0  0  0  0  0  0
    9.0330   53.5397   92.4213 O   0  0  0  0  0  0  0  0  0  0  0  0
   12.6735   53.4950   92.2114 C   0  0  0  0  0  0  0  0  0  0  0  0
   10.6773   52.2822   90.0195 C   0  0  0  0  0  0  0  0  0  0  0  0
   10.1201   51.4185   90.6955 O   0  0  0  0  0  0  0  0  0  0  0  0
   11.0034   52.1389   88.6764 N   0  0  0  0  0  0  0  0  0  0  0  0
   11.6101   52.7924   88.2592 H   0  0  0  0  0  0  0  0  0  0  0  0
   10.4772   51.0582   87.8746 C   0  0  0  0  0  0  0  0  0  0  0  0
   11.2529   50.9766   86.5843 C   0  0  0  0  0  0  0  0  0  0  0  0
   11.6399   49.7250   86.0840 C   0  0  0  0  0  0  0  0  0  0  0  0
   12.2455   49.6162   84.8306 C   0  0  0  0  0  0  0  0  0  0  0  0
   12.4821   50.7589   84.0548 C   0  0  0  0  0  0  0  0  0  0  0  0
   12.1226   52.0122   84.5620 C   0  0  0  0  0  0  0  0  0  0  0  0
   11.4962   52.1219   85.8088 C   0  0  0  0  0  0  0  0  0  0  0  0
   13.0695   50.6405   82.7225 C   0  0  0  0  0  0  0  0  0  0  0  0
   12.2515   49.7586   81.4926 S   0  0  0  0  0  0  0  0  0  0  0  0
   13.5484   50.0835   80.4206 C   0  0  0  0  0  0  0  0  0  0  0  0
   14.5295   50.8165   80.8985 N   0  0  0  0  0  0  0  0  0  0  0  0
   14.2632   51.1440   82.2234 C   0  0  0  0  0  0  0  0  0  0  0  0
   15.2746   51.9541   82.9541 C   0  0  0  0  0  0  0  0  0  0  0  0
   14.7150   55.4080   89.8158 C   0  0  0  0  0  0  0  0  0  0  0  0
   14.3908   54.7404   91.0309 O   0  0  0  0  0  0  0  0  0  0  0  0
   10.4098   53.3073   94.3918 C   0  0  0  0  0  0  0  0  0  0  0  0
   11.4539   52.3498   94.7735 N   0  0  0  0  0  0  0  0  0  0  0  0
   12.7690   52.7345   94.9257 C   0  0  0  0  0  0  0  0  0  0  0  0
   13.7106   51.6016   95.2355 C   0  0  0  0  0  0  0  0  0  0  0  0
   13.1554   53.8886   94.7969 O   0  0  0  0  0  0  0  0  0  0  0  0
   11.2091   51.4083   94.9247 H   0  0  0  0  0  0  0  0  0  0  0  0
   10.5808   54.6816   95.1250 C   0  0  0  0  0  0  0  0  0  0  0  0
    9.2278   55.4193   95.2325 C   0  0  0  0  0  0  0  0  0  0  0  0
   11.0820   54.4343   96.5667 C   0  0  0  0  0  0  0  0  0  0  0  0
   11.5843   55.6091   94.4257 C   0  0  0  0  0  0  0  0  0  0  0  0
 25 26  1  0
  1 26  1  0
  1  2  1  0
  2  3  1  0
  3  8  1  0
  8  9  2  0
  8 10  1  0
 10 12  1  0
 12 13  1  0
 13 14  2  0
 14 15  1  0
 15 16  2  0
 16 19  1  0
 19 20  1  0
 20 21  1  0
 21 22  2  0
 22 23  1  0
 23 24  1  0
 16 17  1  0
 17 18  2  0
  3  4  1  0
  4  5  1  0
  5  6  2  0
  5 27  1  0
 27 28  1  0
 28 29  1  0
 29 30  1  0
 29 31  2  0
 27 33  1  0
 33 34  1  0
 33 35  1  0
 33 36  1  0
  4  7  1  0
  7  1  1  0
 18 13  1  0
 23 19  2  0
 10 11  1  0
 28 32  1  0
M  END
> <minimizedAffinity>
-7.89072

> <CNNscore>
0.7210047841

> <CNNaffinity>
5.9619812965

> <CNN_VS>
4.2986168861

> <CNNaffinity_variance>
0.8132292628

$$$$



 36 38  0  0  0  0  0  0  0  0999 V2000
   12.8097   54.0475   89.5042 C   0  0  0  0  0  0  0  0  0  0  0  0
   11.2890   54.0124   89.3417 C   0  0  0  0  0  0  0  0  0  0  0  0
   10.7988   53.1695   90.5051 C   0  0  0  0  0  0  0  0  0  0  0  0
   11.7559   53.4450   91.5759 N   0  0  0  0  0  0  0  0  0  0  0  0
   11.4233   53.1398   92.8767 C   0  0  0  0  0  0  0  0  0  0  0  0
   10.2646   52.7700   93.1231 O   0  0  0  0  0  0  0  0  0  0  0  0
   13.0380   53.8435   91.0125 C   0  0  0  0  0  0  0  0  0  0  0  0
   10.8406   51.6550   90.2113 C   0  0  0  0  0  0  0  0  0  0  0  0
   10.4720   50.8042   91.0197 O   0  0  0  0  0  0  0  0  0  0  0  0
   11.2223   51.3822   88.9033 N   0  0  0  0  0  0  0  0  0  0  0  0
   11.6794   52.0816   88.3827 H   0  0  0  0  0  0  0  0  0  0  0  0
   10.9673   50.1011   88.2856 C   0  0  0  0  0  0  0  0  0  0  0  0
   11.3939   50.1552   86.8405 C   0  0  0  0  0  0  0  0  0  0  0  0
   11.3829   51.3802   86.1580 C   0  0  0  0  0  0  0  0  0  0  0  0
   11.8932   51.4771   84.8619 C   0  0  0  0  0  0  0  0  0  0  0  0
   12.4192   50.3481   84.2198 C   0  0  0  0  0  0  0  0  0  0  0  0
   12.4068   49.1184   84.8867 C   0  0  0  0  0  0  0  0  0  0  0  0
   11.9154   49.0229   86.1937 C   0  0  0  0  0  0  0  0  0  0  0  0
   12.9989   50.4595   82.8835 C   0  0  0  0  0  0  0  0  0  0  0  0
   12.3485   49.5439   81.5803 S   0  0  0  0  0  0  0  0  0  0  0  0
   13.5426   50.2037   80.5431 C   0  0  0  0  0  0  0  0  0  0  0  0
   14.3706   51.0693   81.0846 N   0  0  0  0  0  0  0  0  0  0  0  0
   14.0656   51.2251   82.4323 C   0  0  0  0  0  0  0  0  0  0  0  0
   14.9122   52.1505   83.2324 C   0  0  0  0  0  0  0  0  0  0  0  0
   14.5885   55.6014   89.7247 C   0  0  0  0  0  0  0  0  0  0  0  0
   13.3401   55.3133   89.1039 O   0  0  0  0  0  0  0  0  0  0  0  0
   12.4053   53.3775   94.0615 C   0  0  0  0  0  0  0  0  0  0  0  0
   12.3856   54.7395   94.6065 N   0  0  0  0  0  0  0  0  0  0  0  0
   11.2113   55.4490   94.7412 C   0  0  0  0  0  0  0  0  0  0  0  0
   11.3961   56.8583   95.2371 C   0  0  0  0  0  0  0  0  0  0  0  0
   10.1102   54.9943   94.4606 O   0  0  0  0  0  0  0  0  0  0  0  0
   13.2329   55.1576   94.8832 H   0  0  0  0  0  0  0  0  0  0  0  0
   12.2915   52.2952   95.1890 C   0  0  0  0  0  0  0  0  0  0  0  0
   13.6378   51.5639   95.3867 C   0  0  0  0  0  0  0  0  0  0  0  0
   11.9456   52.9855   96.5288 C   0  0  0  0  0  0  0  0  0  0  0  0
   11.2081   51.2466   94.9012 C   0  0  0  0  0  0  0  0  0  0  0  0
 25 26  1  0
  1 26  1  0
  1  2  1  0
  2  3  1  0
  3  8  1  0
  8  9  2  0
  8 10  1  0
 10 12  1  0
 12 13  1  0
 13 14  2  0
 14 15  1  0
 15 16  2  0
 16 19  1  0
 19 20  1  0
 20 21  1  0
 21 22  2  0
 22 23  1  0
 23 24  1  0
 16 17  1  0
 17 18  2  0
  3  4  1  0
  4  5  1  0
  5  6  2  0
  5 27  1  0
 27 28  1  0
 28 29  1  0
 29 30  1  0
 29 31  2  0
 27 33  1  0
 33 34  1  0
 33 35  1  0
 33 36  1  0
  4  7  1  0
  7  1  1  0
 18 13  1  0
 23 19  2  0
 10 11  1  0
 28 32  1  0
M  END
> <minimizedAffinity>
-7.44764

> <CNNscore>
0.6814309359

> <CNNaffinity>
6.0639815331

> <CNN_VS>
4.1321845055

> <CNNaffinity_variance>
0.8286542892

$$$$



 36 38  0  0  0  0  0  0  0  0999 V2000
   12.6801   53.5770   89.6370 C   0  0  0  0  0  0  0  0  0  0  0  0
   11.1758   53.7651   89.4323 C   0  0  0  0  0  0  0  0  0  0  0  0
   10.5483   53.2649   90.7208 C   0  0  0  0  0  0  0  0  0  0  0  0
   11.5379   53.5841   91.7491 N   0  0  0  0  0  0  0  0  0  0  0  0
   11.1575   53.6041   93.0723 C   0  0  0  0  0  0  0  0  0  0  0  0
    9.9525   53.4898   93.3464 O   0  0  0  0  0  0  0  0  0  0  0  0
   12.8695   53.6422   91.1630 C   0  0  0  0  0  0  0  0  0  0  0  0
   10.3310   51.7370   90.7314 C   0  0  0  0  0  0  0  0  0  0  0  0
   10.1655   51.0899   91.7644 O   0  0  0  0  0  0  0  0  0  0  0  0
   10.2247   51.2109   89.4497 N   0  0  0  0  0  0  0  0  0  0  0  0
   10.5531   51.7396   88.6869 H   0  0  0  0  0  0  0  0  0  0  0  0
    9.6458   49.9099   89.2047 C   0  0  0  0  0  0  0  0  0  0  0  0
   10.7184   48.9788   88.6987 C   0  0  0  0  0  0  0  0  0  0  0  0
   10.6526   48.4912   87.3855 C   0  0  0  0  0  0  0  0  0  0  0  0
   11.6979   47.7325   86.8552 C   0  0  0  0  0  0  0  0  0  0  0  0
   12.8279   47.4407   87.6307 C   0  0  0  0  0  0  0  0  0  0  0  0
   12.8853   47.9019   88.9503 C   0  0  0  0  0  0  0  0  0  0  0  0
   11.8485   48.6805   89.4773 C   0  0  0  0  0  0  0  0  0  0  0  0
   13.9436   46.6899   87.0600 C   0  0  0  0  0  0  0  0  0  0  0  0
   15.5498   46.9833   87.6019 S   0  0  0  0  0  0  0  0  0  0  0  0
   16.1224   45.8204   86.4809 C   0  0  0  0  0  0  0  0  0  0  0  0
   15.2105   45.2144   85.7534 N   0  0  0  0  0  0  0  0  0  0  0  0
   13.9517   45.7068   86.0798 C   0  0  0  0  0  0  0  0  0  0  0  0
   12.7810   45.1613   85.3414 C   0  0  0  0  0  0  0  0  0  0  0  0
   14.0947   55.4537   89.9599 C   0  0  0  0  0  0  0  0  0  0  0  0
   13.4190   54.6307   89.0148 O   0  0  0  0  0  0  0  0  0  0  0  0
   12.1651   53.9052   94.2206 C   0  0  0  0  0  0  0  0  0  0  0  0
   12.1840   55.3035   94.6646 N   0  0  0  0  0  0  0  0  0  0  0  0
   11.0209   55.9999   94.9149 C   0  0  0  0  0  0  0  0  0  0  0  0
   11.2339   57.4453   95.2778 C   0  0  0  0  0  0  0  0  0  0  0  0
    9.9045   55.5060   94.8274 O   0  0  0  0  0  0  0  0  0  0  0  0
   13.0497   55.7561   94.7870 H   0  0  0  0  0  0  0  0  0  0  0  0
   12.0482   52.9108   95.4259 C   0  0  0  0  0  0  0  0  0  0  0  0
   11.7003   53.6648   96.7286 C   0  0  0  0  0  0  0  0  0  0  0  0
   10.8996   51.9114   95.1561 C   0  0  0  0  0  0  0  0  0  0  0  0
   13.3336   52.1053   95.6606 C   0  0  0  0  0  0  0  0  0  0  0  0
 25 26  1  0
  1 26  1  0
  1  2  1  0
  2  3  1  0
  3  8  1  0
  8  9  2  0
  8 10  1  0
 10 12  1  0
 12 13  1  0
 13 14  2  0
 14 15  1  0
 15 16  2  0
 16 19  1  0
 19 20  1  0
 20 21  1  0
 21 22  2  0
 22 23  1  0
 23 24  1  0
 16 17  1  0
 17 18  2  0
  3  4  1  0
  4  5  1  0
  5  6  2  0
  5 27  1  0
 27 28  1  0
 28 29  1  0
 29 30  1  0
 29 31  2  0
 27 33  1  0
 33 34  1  0
 33 35  1  0
 33 36  1  0
  4  7  1  0
  7  1  1  0
 18 13  1  0
 23 19  2  0
 10 11  1  0
 28 32  1  0
M  END
> <minimizedAffinity>
-6.14728

> <CNNscore>
0.6717412472

> <CNNaffinity>
5.9063191414

> <CNN_VS>
3.9675180912

> <CNNaffinity_variance>
0.2112983912

$$$$



 36 38  0  0  0  0  0  0  0  0999 V2000
    9.1509   53.4708   88.5170 C   0  0  0  0  0  0  0  0  0  0  0  0
    9.9352   52.2321   88.0802 C   0  0  0  0  0  0  0  0  0  0  0  0
   11.1904   52.2527   88.9335 C   0  0  0  0  0  0  0  0  0  0  0  0
   10.7582   52.8585   90.1925 N   0  0  0  0  0  0  0  0  0  0  0  0
   11.5353   52.7069   91.3190 C   0  0  0  0  0  0  0  0  0  0  0  0
   12.5105   51.9409   91.2700 O   0  0  0  0  0  0  0  0  0  0  0  0
    9.6082   53.7221   89.9649 C   0  0  0  0  0  0  0  0  0  0  0  0
   12.3069   53.1384   88.3412 C   0  0  0  0  0  0  0  0  0  0  0  0
   13.1848   53.6597   89.0272 O   0  0  0  0  0  0  0  0  0  0  0  0
   12.2710   53.1732   86.9525 N   0  0  0  0  0  0  0  0  0  0  0  0
   11.4470   52.8998   86.4883 H   0  0  0  0  0  0  0  0  0  0  0  0
   13.4087   53.5994   86.1704 C   0  0  0  0  0  0  0  0  0  0  0  0
   13.3896   52.8879   84.8413 C   0  0  0  0  0  0  0  0  0  0  0  0
   14.5258   52.9190   84.0199 C   0  0  0  0  0  0  0  0  0  0  0  0
   14.5764   52.1637   82.8466 C   0  0  0  0  0  0  0  0  0  0  0  0
   13.4880   51.3666   82.4680 C   0  0  0  0  0  0  0  0  0  0  0  0
   12.3419   51.3541   83.2703 C   0  0  0  0  0  0  0  0  0  0  0  0
   12.2968   52.0935   84.4577 C   0  0  0  0  0  0  0  0  0  0  0  0
   13.5599   50.5375   81.2673 C   0  0  0  0  0  0  0  0  0  0  0  0
   12.4285   49.2639   81.0275 S   0  0  0  0  0  0  0  0  0  0  0  0
   13.2162   48.8636   79.5591 C   0  0  0  0  0  0  0  0  0  0  0  0
   14.2385   49.6180   79.2220 N   0  0  0  0  0  0  0  0  0  0  0  0
   14.4445   50.5864   80.1984 C   0  0  0  0  0  0  0  0  0  0  0  0
   15.5802   51.5289   80.0114 C   0  0  0  0  0  0  0  0  0  0  0  0
    7.1766   53.1736   89.7981 C   0  0  0  0  0  0  0  0  0  0  0  0
    7.7433   53.2226   88.4929 O   0  0  0  0  0  0  0  0  0  0  0  0
   11.1517   53.3504   92.6840 C   0  0  0  0  0  0  0  0  0  0  0  0
   10.3508   52.4890   93.5610 N   0  0  0  0  0  0  0  0  0  0  0  0
    9.0223   52.7522   93.8183 C   0  0  0  0  0  0  0  0  0  0  0  0
    8.3877   51.8108   94.8068 C   0  0  0  0  0  0  0  0  0  0  0  0
    8.4071   53.6827   93.3146 O   0  0  0  0  0  0  0  0  0  0  0  0
   10.7731   51.7027   93.9765 H   0  0  0  0  0  0  0  0  0  0  0  0
   12.3725   53.9794   93.4388 C   0  0  0  0  0  0  0  0  0  0  0  0
   13.4255   54.5054   92.4384 C   0  0  0  0  0  0  0  0  0  0  0  0
   11.8910   55.1890   94.2732 C   0  0  0  0  0  0  0  0  0  0  0  0
   13.0593   52.9894   94.3898 C   0  0  0  0  0  0  0  0  0  0  0  0
 25 26  1  0
  1 26  1  0
  1  2  1  0
  2  3  1  0
  3  8  1  0
  8  9  2  0
  8 10  1  0
 10 12  1  0
 12 13  1  0
 13 14  2  0
 14 15  1  0
 15 16  2  0
 16 19  1  0
 19 20  1  0
 20 21  1  0
 21 22  2  0
 22 23  1  0
 23 24  1  0
 16 17  1  0
 17 18  2  0
  3  4  1  0
  4  5  1  0
  5  6  2  0
  5 27  1  0
 27 28  1  0
 28 29  1  0
 29 30  1  0
 29 31  2  0
 27 33  1  0
 33 34  1  0
 33 35  1  0
 33 36  1  0
  4  7  1  0
  7  1  1  0
 18 13  1  0
 23 19  2  0
 10 11  1  0
 28 32  1  0
M  END
> <minimizedAffinity>
-8.67549

> <CNNscore>
0.6705138683

> <CNNaffinity>
6.4648690224

> <CNN_VS>
4.3347845078

> <CNNaffinity_variance>
0.4047517776

$$$$



 36 38  0  0  0  0  0  0  0  0999 V2000
   12.2848   53.8721   89.6514 C   0  0  0  0  0  0  0  0  0  0  0  0
   10.7946   54.1476   89.4423 C   0  0  0  0  0  0  0  0  0  0  0  0
   10.0927   53.2144   90.4122 C   0  0  0  0  0  0  0  0  0  0  0  0
   11.0151   53.1119   91.5423 N   0  0  0  0  0  0  0  0  0  0  0  0
   10.5541   52.6445   92.7526 C   0  0  0  0  0  0  0  0  0  0  0  0
    9.3354   52.4563   92.8923 O   0  0  0  0  0  0  0  0  0  0  0  0
   12.3798   53.3619   91.1003 C   0  0  0  0  0  0  0  0  0  0  0  0
    9.8857   51.7960   89.8402 C   0  0  0  0  0  0  0  0  0  0  0  0
    9.1114   50.9789   90.3363 O   0  0  0  0  0  0  0  0  0  0  0  0
   10.5749   51.6021   88.6493 N   0  0  0  0  0  0  0  0  0  0  0  0
   11.3108   52.2137   88.4176 H   0  0  0  0  0  0  0  0  0  0  0  0
   10.2423   50.5285   87.7414 C   0  0  0  0  0  0  0  0  0  0  0  0
   11.3659   49.5232   87.7316 C   0  0  0  0  0  0  0  0  0  0  0  0
   12.0058   49.1842   88.9325 C   0  0  0  0  0  0  0  0  0  0  0  0
   12.9596   48.1651   88.9674 C   0  0  0  0  0  0  0  0  0  0  0  0
   13.2971   47.4684   87.7994 C   0  0  0  0  0  0  0  0  0  0  0  0
   12.6812   47.8219   86.5941 C   0  0  0  0  0  0  0  0  0  0  0  0
   11.7095   48.8286   86.5603 C   0  0  0  0  0  0  0  0  0  0  0  0
   14.2577   46.3686   87.8450 C   0  0  0  0  0  0  0  0  0  0  0  0
   15.8075   46.5443   87.1193 S   0  0  0  0  0  0  0  0  0  0  0  0
   16.1839   44.9353   87.5736 C   0  0  0  0  0  0  0  0  0  0  0  0
   15.2569   44.2872   88.2434 N   0  0  0  0  0  0  0  0  0  0  0  0
   14.1435   45.1041   88.4066 C   0  0  0  0  0  0  0  0  0  0  0  0
   12.9680   44.5391   89.1222 C   0  0  0  0  0  0  0  0  0  0  0  0
   14.3661   54.9395   90.0465 C   0  0  0  0  0  0  0  0  0  0  0  0
   13.0532   55.0694   89.5113 O   0  0  0  0  0  0  0  0  0  0  0  0
   11.4873   52.4803   93.9883 C   0  0  0  0  0  0  0  0  0  0  0  0
   12.7473   51.7809   93.7126 N   0  0  0  0  0  0  0  0  0  0  0  0
   12.8332   50.4053   93.7396 C   0  0  0  0  0  0  0  0  0  0  0  0
   14.2225   49.8700   93.5169 C   0  0  0  0  0  0  0  0  0  0  0  0
   11.8766   49.6718   93.9513 O   0  0  0  0  0  0  0  0  0  0  0  0
   13.5522   52.3076   93.5031 H   0  0  0  0  0  0  0  0  0  0  0  0
   11.7202   53.8168   94.7725 C   0  0  0  0  0  0  0  0  0  0  0  0
   10.5299   54.7823   94.5786 C   0  0  0  0  0  0  0  0  0  0  0  0
   11.8198   53.5125   96.2853 C   0  0  0  0  0  0  0  0  0  0  0  0
   13.0055   54.5406   94.3477 C   0  0  0  0  0  0  0  0  0  0  0  0
 25 26  1  0
  1 26  1  0
  1  2  1  0
  2  3  1  0
  3  8  1  0
  8  9  2  0
  8 10  1  0
 10 12  1  0
 12 13  1  0
 13 14  2  0
 14 15  1  0
 15 16  2  0
 16 19  1  0
 19 20  1  0
 20 21  1  0
 21 22  2  0
 22 23  1  0
 23 24  1  0
 16 17  1  0
 17 18  2  0
  3  4  1  0
  4  5  1  0
  5  6  2  0
  5 27  1  0
 27 28  1  0
 28 29  1  0
 29 30  1  0
 29 31  2  0
 27 33  1  0
 33 34  1  0
 33 35  1  0
 33 36  1  0
  4  7  1  0
  7  1  1  0
 18 13  1  0
 23 19  2  0
 10 11  1  0
 28 32  1  0
M  END
> <minimizedAffinity>
-5.42891

> <CNNscore>
0.6604832411

> <CNNaffinity>
5.9322934151

> <CNN_VS>
3.9181804657

> <CNNaffinity_variance>
0.1281950027

$$$$



 36 38  0  0  0  0  0  0  0  0999 V2000
   13.4281   53.8403   91.2268 C   0  0  0  0  0  0  0  0  0  0  0  0
   12.1938   54.1169   90.3664 C   0  0  0  0  0  0  0  0  0  0  0  0
   11.0330   53.5621   91.1721 C   0  0  0  0  0  0  0  0  0  0  0  0
   11.4353   53.7606   92.5640 N   0  0  0  0  0  0  0  0  0  0  0  0
   10.4838   53.7094   93.5579 C   0  0  0  0  0  0  0  0  0  0  0  0
    9.2882   53.6371   93.2334 O   0  0  0  0  0  0  0  0  0  0  0  0
   12.8874   53.7919   92.6669 C   0  0  0  0  0  0  0  0  0  0  0  0
   10.8164   52.0498   90.9533 C   0  0  0  0  0  0  0  0  0  0  0  0
   11.1374   51.1991   91.7820 O   0  0  0  0  0  0  0  0  0  0  0  0
   10.1169   51.7814   89.7830 N   0  0  0  0  0  0  0  0  0  0  0  0
   10.0634   52.4763   89.0877 H   0  0  0  0  0  0  0  0  0  0  0  0
    9.4658   50.5113   89.5577 C   0  0  0  0  0  0  0  0  0  0  0  0
   10.4323   49.5736   88.8797 C   0  0  0  0  0  0  0  0  0  0  0  0
   10.6223   48.2819   89.3914 C   0  0  0  0  0  0  0  0  0  0  0  0
   11.4130   47.3554   88.7089 C   0  0  0  0  0  0  0  0  0  0  0  0
   12.0352   47.7049   87.5030 C   0  0  0  0  0  0  0  0  0  0  0  0
   11.8707   49.0011   87.0030 C   0  0  0  0  0  0  0  0  0  0  0  0
   11.0615   49.9250   87.6742 C   0  0  0  0  0  0  0  0  0  0  0  0
   12.8212   46.7205   86.7631 C   0  0  0  0  0  0  0  0  0  0  0  0
   12.0460   45.6371   85.6746 S   0  0  0  0  0  0  0  0  0  0  0  0
   13.5632   44.9132   85.3413 C   0  0  0  0  0  0  0  0  0  0  0  0
   14.6031   45.4302   85.9573 N   0  0  0  0  0  0  0  0  0  0  0  0
   14.1872   46.4729   86.7779 C   0  0  0  0  0  0  0  0  0  0  0  0
   15.2212   47.1745   87.5853 C   0  0  0  0  0  0  0  0  0  0  0  0
   14.6083   55.2770   89.7536 C   0  0  0  0  0  0  0  0  0  0  0  0
   14.3848   54.8957   91.1070 O   0  0  0  0  0  0  0  0  0  0  0  0
   10.8461   53.8808   95.0625 C   0  0  0  0  0  0  0  0  0  0  0  0
   12.1728   53.3752   95.4322 N   0  0  0  0  0  0  0  0  0  0  0  0
   12.3601   52.0790   95.8625 C   0  0  0  0  0  0  0  0  0  0  0  0
   13.7724   51.7656   96.2786 C   0  0  0  0  0  0  0  0  0  0  0  0
   11.4602   51.2522   95.9308 O   0  0  0  0  0  0  0  0  0  0  0  0
   12.9495   53.9772   95.3713 H   0  0  0  0  0  0  0  0  0  0  0  0
   10.6044   55.3337   95.5977 C   0  0  0  0  0  0  0  0  0  0  0  0
   11.5220   56.3451   94.8755 C   0  0  0  0  0  0  0  0  0  0  0  0
    9.1446   55.7513   95.3049 C   0  0  0  0  0  0  0  0  0  0  0  0
   10.8403   55.4588   97.1093 C   0  0  0  0  0  0  0  0  0  0  0  0
 25 26  1  0
  1 26  1  0
  1  2  1  0
  2  3  1  0
  3  8  1  0
  8  9  2  0
  8 10  1  0
 10 12  1  0
 12 13  1  0
 13 14  2  0
 14 15  1  0
 15 16  2  0
 16 19  1  0
 19 20  1  0
 20 21  1  0
 21 22  2  0
 22 23  1  0
 23 24  1  0
 16 17  1  0
 17 18  2  0
  3  4  1  0
  4  5  1  0
  5  6  2  0
  5 27  1  0
 27 28  1  0
 28 29  1  0
 29 30  1  0
 29 31  2  0
 27 33  1  0
 33 34  1  0
 33 35  1  0
 33 36  1  0
  4  7  1  0
  7  1  1  0
 18 13  1  0
 23 19  2  0
 10 11  1  0
 28 32  1  0
M  END
> <minimizedAffinity>
-6.26197

> <CNNscore>
0.5642874837

> <CNNaffinity>
5.9556307793

> <CNN_VS>
3.3606879711

> <CNNaffinity_variance>
0.2711057663

$$$$



 36 38  0  0  0  0  0  0  0  0999 V2000
   12.1735   53.5905   90.0149 C   0  0  0  0  0  0  0  0  0  0  0  0
   10.8288   53.8483   89.3327 C   0  0  0  0  0  0  0  0  0  0  0  0
    9.7968   53.2944   90.2983 C   0  0  0  0  0  0  0  0  0  0  0  0
   10.3878   53.5117   91.6182 N   0  0  0  0  0  0  0  0  0  0  0  0
    9.5849   53.4649   92.7359 C   0  0  0  0  0  0  0  0  0  0  0  0
    8.3564   53.3803   92.5824 O   0  0  0  0  0  0  0  0  0  0  0  0
   11.8397   53.5546   91.5170 C   0  0  0  0  0  0  0  0  0  0  0  0
    9.5650   51.7782   90.1276 C   0  0  0  0  0  0  0  0  0  0  0  0
    8.8236   51.1259   90.8612 O   0  0  0  0  0  0  0  0  0  0  0  0
   10.1875   51.2744   88.9919 N   0  0  0  0  0  0  0  0  0  0  0  0
   10.9064   51.7973   88.5688 H   0  0  0  0  0  0  0  0  0  0  0  0
    9.8098   50.0049   88.4146 C   0  0  0  0  0  0  0  0  0  0  0  0
   11.0385   49.1437   88.2668 C   0  0  0  0  0  0  0  0  0  0  0  0
   11.9878   49.1044   89.2982 C   0  0  0  0  0  0  0  0  0  0  0  0
   13.0662   48.2194   89.2392 C   0  0  0  0  0  0  0  0  0  0  0  0
   13.2200   47.3598   88.1434 C   0  0  0  0  0  0  0  0  0  0  0  0
   12.2904   47.4151   87.0993 C   0  0  0  0  0  0  0  0  0  0  0  0
   11.1970   48.2862   87.1659 C   0  0  0  0  0  0  0  0  0  0  0  0
   14.3197   46.3988   88.1050 C   0  0  0  0  0  0  0  0  0  0  0  0
   15.6876   46.6904   87.1034 S   0  0  0  0  0  0  0  0  0  0  0  0
   16.3563   45.1962   87.6106 C   0  0  0  0  0  0  0  0  0  0  0  0
   15.6534   44.5102   88.4843 N   0  0  0  0  0  0  0  0  0  0  0  0
   14.4788   45.1945   88.7771 C   0  0  0  0  0  0  0  0  0  0  0  0
   13.5292   44.5643   89.7333 C   0  0  0  0  0  0  0  0  0  0  0  0
   14.1731   54.6791   90.6812 C   0  0  0  0  0  0  0  0  0  0  0  0
   13.0949   54.6514   89.7518 O   0  0  0  0  0  0  0  0  0  0  0  0
   10.1523   53.6561   94.1733 C   0  0  0  0  0  0  0  0  0  0  0  0
    9.9426   54.9935   94.7391 N   0  0  0  0  0  0  0  0  0  0  0  0
   10.9844   55.8804   94.9075 C   0  0  0  0  0  0  0  0  0  0  0  0
   10.5941   57.1692   95.5804 C   0  0  0  0  0  0  0  0  0  0  0  0
   12.1363   55.6431   94.5686 O   0  0  0  0  0  0  0  0  0  0  0  0
    9.0343   55.2646   95.0053 H   0  0  0  0  0  0  0  0  0  0  0  0
    9.7174   52.5261   95.1679 C   0  0  0  0  0  0  0  0  0  0  0  0
    9.6905   51.1525   94.4614 C   0  0  0  0  0  0  0  0  0  0  0  0
   10.7488   52.4291   96.3159 C   0  0  0  0  0  0  0  0  0  0  0  0
    8.3368   52.7784   95.7896 C   0  0  0  0  0  0  0  0  0  0  0  0
 25 26  1  0
  1 26  1  0
  1  2  1  0
  2  3  1  0
  3  8  1  0
  8  9  2  0
  8 10  1  0
 10 12  1  0
 12 13  1  0
 13 14  2  0
 14 15  1  0
 15 16  2  0
 16 19  1  0
 19 20  1  0
 20 21  1  0
 21 22  2  0
 22 23  1  0
 23 24  1  0
 16 17  1  0
 17 18  2  0
  3  4  1  0
  4  5  1  0
  5  6  2  0
  5 27  1  0
 27 28  1  0
 28 29  1  0
 29 30  1  0
 29 31  2  0
 27 33  1  0
 33 34  1  0
 33 35  1  0
 33 36  1  0
  4  7  1  0
  7  1  1  0
 18 13  1  0
 23 19  2  0
 10 11  1  0
 28 32  1  0
M  END
> <minimizedAffinity>
-5.34010

> <CNNscore>
0.5595866442

> <CNNaffinity>
5.4078249931

> <CNN_VS>
3.0261466503

> <CNNaffinity_variance>
0.2261520028

$$$$



 36 38  0  0  0  0  0  0  0  0999 V2000
   13.1003   54.3747   90.2553 C   0  0  0  0  0  0  0  0  0  0  0  0
   11.6520   54.1582   89.8131 C   0  0  0  0  0  0  0  0  0  0  0  0
   11.0595   53.2482   90.8738 C   0  0  0  0  0  0  0  0  0  0  0  0
   11.7603   53.6241   92.1010 N   0  0  0  0  0  0  0  0  0  0  0  0
   11.2311   53.2652   93.3204 C   0  0  0  0  0  0  0  0  0  0  0  0
   10.1001   52.7551   93.3508 O   0  0  0  0  0  0  0  0  0  0  0  0
   13.0672   54.1814   91.7818 C   0  0  0  0  0  0  0  0  0  0  0  0
   11.3380   51.7535   90.6089 C   0  0  0  0  0  0  0  0  0  0  0  0
   11.5935   50.9496   91.5042 O   0  0  0  0  0  0  0  0  0  0  0  0
   11.1476   51.4101   89.2759 N   0  0  0  0  0  0  0  0  0  0  0  0
   11.1345   52.1218   88.5958 H   0  0  0  0  0  0  0  0  0  0  0  0
   10.9683   50.0381   88.8598 C   0  0  0  0  0  0  0  0  0  0  0  0
   11.3885   49.8996   87.4184 C   0  0  0  0  0  0  0  0  0  0  0  0
   11.6527   48.6275   86.8906 C   0  0  0  0  0  0  0  0  0  0  0  0
   11.9184   48.4631   85.5298 C   0  0  0  0  0  0  0  0  0  0  0  0
   11.9313   49.5696   84.6702 C   0  0  0  0  0  0  0  0  0  0  0  0
   11.6955   50.8438   85.1974 C   0  0  0  0  0  0  0  0  0  0  0  0
   11.4080   51.0089   86.5572 C   0  0  0  0  0  0  0  0  0  0  0  0
   12.1593   49.3918   83.2381 C   0  0  0  0  0  0  0  0  0  0  0  0
   12.9446   50.6230   82.3287 S   0  0  0  0  0  0  0  0  0  0  0  0
   12.7564   49.6745   80.9139 C   0  0  0  0  0  0  0  0  0  0  0  0
   12.1778   48.5045   81.0698 N   0  0  0  0  0  0  0  0  0  0  0  0
   11.8309   48.3308   82.4052 C   0  0  0  0  0  0  0  0  0  0  0  0
   11.1365   47.0705   82.7829 C   0  0  0  0  0  0  0  0  0  0  0  0
   14.9362   55.7631   89.6815 C   0  0  0  0  0  0  0  0  0  0  0  0
   13.5389   55.7000   89.9473 O   0  0  0  0  0  0  0  0  0  0  0  0
   11.9396   53.6052   94.6646 C   0  0  0  0  0  0  0  0  0  0  0  0
   11.9276   55.0292   95.0175 N   0  0  0  0  0  0  0  0  0  0  0  0
   10.7765   55.7842   94.9436 C   0  0  0  0  0  0  0  0  0  0  0  0
   10.9743   57.2423   95.2612 C   0  0  0  0  0  0  0  0  0  0  0  0
    9.6872   55.3273   94.6233 O   0  0  0  0  0  0  0  0  0  0  0  0
   12.7631   55.4566   95.3148 H   0  0  0  0  0  0  0  0  0  0  0  0
   11.4727   52.7034   95.8580 C   0  0  0  0  0  0  0  0  0  0  0  0
   10.0080   52.2517   95.6653 C   0  0  0  0  0  0  0  0  0  0  0  0
   12.3422   51.4256   95.9054 C   0  0  0  0  0  0  0  0  0  0  0  0
   11.5880   53.4071   97.2173 C   0  0  0  0  0  0  0  0  0  0  0  0
 25 26  1  0
  1 26  1  0
  1  2  1  0
  2  3  1  0
  3  8  1  0
  8  9  2  0
  8 10  1  0
 10 12  1  0
 12 13  1  0
 13 14  2  0
 14 15  1  0
 15 16  2  0
 16 19  1  0
 19 20  1  0
 20 21  1  0
 21 22  2  0
 22 23  1  0
 23 24  1  0
 16 17  1  0
 17 18  2  0
  3  4  1  0
  4  5  1  0
  5  6  2  0
  5 27  1  0
 27 28  1  0
 28 29  1  0
 29 30  1  0
 29 31  2  0
 27 33  1  0
 33 34  1  0
 33 35  1  0
 33 36  1  0
  4  7  1  0
  7  1  1  0
 18 13  1  0
 23 19  2  0
 10 11  1  0
 28 32  1  0
M  END
> <minimizedAffinity>
-6.50194

> <CNNscore>
0.4284248054

> <CNNaffinity>
5.5771994591

> <CNN_VS>
2.3894104958

> <CNNaffinity_variance>
0.5888573527

$$$$
