


 26 27  0  0  0  0  0  0  0  0999 V2000
   13.3616    2.4070   39.2211 C   0  0  0  0  0  0  0  0  0  0  0  0
   12.7415    1.7289   40.4354 C   0  0  0  0  0  0  0  0  0  0  0  0
   13.3308    0.8121   41.0168 O   0  0  0  0  0  0  0  0  0  0  0  0
   11.4024    2.2295   40.9589 C   0  0  0  0  0  0  0  0  0  0  0  0
   11.3589    2.1244   42.3840 O   0  0  0  0  0  0  0  0  0  0  0  0
   11.2149    3.6923   40.5847 C   0  0  0  0  0  0  0  0  0  0  0  0
    9.9643    4.1662   41.0897 O   0  0  0  0  0  0  0  0  0  0  0  0
   11.2556    3.9236   39.0782 C   0  0  0  0  0  0  0  0  0  0  0  0
   12.2825    3.0541   38.3314 C   0  0  0  0  0  0  0  0  0  0  0  0
   12.8951    3.9129   37.3552 O   0  0  0  0  0  0  0  0  0  0  0  0
   12.0638    2.6676   42.7700 H   0  0  0  0  0  0  0  0  0  0  0  0
    9.2404    3.6662   40.6813 H   0  0  0  0  0  0  0  0  0  0  0  0
   12.2076    4.3146   36.8012 H   0  0  0  0  0  0  0  0  0  0  0  0
   11.5625    1.9128   37.5863 C   0  0  0  0  0  0  0  0  0  0  0  0
   11.0949    0.9042   38.0868 O   0  0  0  0  0  0  0  0  0  0  0  0
   11.5554    2.0899   36.2460 O   0  0  0  0  0  0  0  0  0  0  0  0
   11.9182    2.8699   35.8746 H   0  0  0  0  0  0  0  0  0  0  0  0
   14.4541    3.3808   39.7101 C   0  0  0  0  0  0  0  0  0  0  0  0
   18.3397    2.4788   38.0306 C   0  0  0  0  0  0  0  0  0  0  0  0
   17.2680    2.8079   37.1992 C   0  0  0  0  0  0  0  0  0  0  0  0
   16.0139    3.1085   37.7356 C   0  0  0  0  0  0  0  0  0  0  0  0
   15.8123    3.0805   39.1186 C   0  0  0  0  0  0  0  0  0  0  0  0
   16.8917    2.7582   39.9517 C   0  0  0  0  0  0  0  0  0  0  0  0
   18.1468    2.4573   39.4113 C   0  0  0  0  0  0  0  0  0  0  0  0
   19.4019    1.7880   36.0200 C   0  0  0  0  0  0  0  0  0  0  0  0
   19.5083    2.1996   37.3758 O   0  0  0  0  0  0  0  0  0  0  0  0
 25 26  1  0
 26 19  1  0
 19 20  2  0
 20 21  1  0
 21 22  2  0
 22 18  1  0
  1 18  1  0
  1  2  1  0
  2  3  2  0
  2  4  1  0
  4  5  1  0
  4  6  1  0
  6  7  1  0
  6  8  1  0
  8  9  1  0
  9 10  1  0
  9 14  1  0
 14 15  2  0
 14 16  1  0
 22 23  1  0
 23 24  2  0
 24 19  1  0
  9  1  1  0
  5 11  1  0
  7 12  1  0
 10 13  1  0
 16 17  1  0
M  END
> <minimizedAffinity>
-10.39835

> <CNNscore>
0.9701315165

> <CNNaffinity>
6.4600014687

> <CNN_VS>
6.2670512199

> <CNNaffinity_variance>
0.3126194179

$$$$



 26 27  0  0  0  0  0  0  0  0999 V2000
   13.3689    2.4591   39.2529 C   0  0  0  0  0  0  0  0  0  0  0  0
   12.7356    1.7460   40.4400 C   0  0  0  0  0  0  0  0  0  0  0  0
   13.3269    0.8251   41.0129 O   0  0  0  0  0  0  0  0  0  0  0  0
   11.3797    2.2163   40.9481 C   0  0  0  0  0  0  0  0  0  0  0  0
   11.3105    2.0794   42.3696 O   0  0  0  0  0  0  0  0  0  0  0  0
   11.1782    3.6841   40.6019 C   0  0  0  0  0  0  0  0  0  0  0  0
    9.9114    4.1292   41.0927 O   0  0  0  0  0  0  0  0  0  0  0  0
   11.2443    3.9487   39.1019 C   0  0  0  0  0  0  0  0  0  0  0  0
   12.2977    3.1102   38.3566 C   0  0  0  0  0  0  0  0  0  0  0  0
   12.9164    3.9986   37.4112 O   0  0  0  0  0  0  0  0  0  0  0  0
   11.9999    2.6240   42.7807 H   0  0  0  0  0  0  0  0  0  0  0  0
    9.2027    3.6281   40.6596 H   0  0  0  0  0  0  0  0  0  0  0  0
   12.2339    4.4027   36.8527 H   0  0  0  0  0  0  0  0  0  0  0  0
   11.6087    1.9754   37.5732 C   0  0  0  0  0  0  0  0  0  0  0  0
   11.5489    1.8665   36.3604 O   0  0  0  0  0  0  0  0  0  0  0  0
   10.9728    1.0975   38.3812 O   0  0  0  0  0  0  0  0  0  0  0  0
   11.0271    1.1929   39.3117 H   0  0  0  0  0  0  0  0  0  0  0  0
   14.4377    3.4373   39.7839 C   0  0  0  0  0  0  0  0  0  0  0  0
   18.4276    2.5241   38.3772 C   0  0  0  0  0  0  0  0  0  0  0  0
   18.1211    2.4466   39.7366 C   0  0  0  0  0  0  0  0  0  0  0  0
   16.8331    2.7315   40.1958 C   0  0  0  0  0  0  0  0  0  0  0  0
   15.8291    3.1036   39.2970 C   0  0  0  0  0  0  0  0  0  0  0  0
   16.1370    3.1725   37.9318 C   0  0  0  0  0  0  0  0  0  0  0  0
   17.4283    2.8866   37.4749 C   0  0  0  0  0  0  0  0  0  0  0  0
   20.6366    2.1092   39.1493 C   0  0  0  0  0  0  0  0  0  0  0  0
   19.7262    2.2271   38.0647 O   0  0  0  0  0  0  0  0  0  0  0  0
 25 26  1  0
 26 19  1  0
 19 20  2  0
 20 21  1  0
 21 22  2  0
 22 18  1  0
  1 18  1  0
  1  2  1  0
  2  3  2  0
  2  4  1  0
  4  5  1  0
  4  6  1  0
  6  7  1  0
  6  8  1  0
  8  9  1  0
  9 10  1  0
  9 14  1  0
 14 15  2  0
 14 16  1  0
 22 23  1  0
 23 24  2  0
 24 19  1  0
  9  1  1  0
  5 11  1  0
  7 12  1  0
 10 13  1  0
 16 17  1  0
M  END
> <minimizedAffinity>
-9.76806

> <CNNscore>
0.9420359731

> <CNNaffinity>
6.1637783051

> <CNN_VS>
5.8065009117

> <CNNaffinity_variance>
0.1989040822

$$$$



 26 27  0  0  0  0  0  0  0  0999 V2000
   22.3425    1.4221   39.8938 C   0  0  0  0  0  0  0  0  0  0  0  0
   22.6073    2.3338   41.0844 C   0  0  0  0  0  0  0  0  0  0  0  0
   22.0333    3.4229   41.1864 O   0  0  0  0  0  0  0  0  0  0  0  0
   23.5545    1.8638   42.1798 C   0  0  0  0  0  0  0  0  0  0  0  0
   23.1088    2.3355   43.4538 O   0  0  0  0  0  0  0  0  0  0  0  0
   23.5845    0.3431   42.2203 C   0  0  0  0  0  0  0  0  0  0  0  0
   24.4621   -0.0976   43.2591 O   0  0  0  0  0  0  0  0  0  0  0  0
   24.0378   -0.2713   40.9007 C   0  0  0  0  0  0  0  0  0  0  0  0
   23.5250    0.4645   39.6502 C   0  0  0  0  0  0  0  0  0  0  0  0
   23.1488   -0.5587   38.7135 O   0  0  0  0  0  0  0  0  0  0  0  0
   22.2244    1.9822   43.6380 H   0  0  0  0  0  0  0  0  0  0  0  0
   25.3639    0.2063   43.0711 H   0  0  0  0  0  0  0  0  0  0  0  0
   23.8996   -1.1553   38.5675 H   0  0  0  0  0  0  0  0  0  0  0  0
   24.6628    1.2961   39.0255 C   0  0  0  0  0  0  0  0  0  0  0  0
   25.8428    1.2497   39.3284 O   0  0  0  0  0  0  0  0  0  0  0  0
   24.2146    2.1887   38.1143 O   0  0  0  0  0  0  0  0  0  0  0  0
   23.3050    2.2135   37.8908 H   0  0  0  0  0  0  0  0  0  0  0  0
   20.9857    0.7194   40.1087 C   0  0  0  0  0  0  0  0  0  0  0  0
   17.7816    2.5998   37.8883 C   0  0  0  0  0  0  0  0  0  0  0  0
   18.9179    2.1280   37.2293 C   0  0  0  0  0  0  0  0  0  0  0  0
   19.9513    1.5124   37.9391 C   0  0  0  0  0  0  0  0  0  0  0  0
   19.8638    1.3625   39.3263 C   0  0  0  0  0  0  0  0  0  0  0  0
   18.7184    1.8293   39.9846 C   0  0  0  0  0  0  0  0  0  0  0  0
   17.6848    2.4458   39.2708 C   0  0  0  0  0  0  0  0  0  0  0  0
   16.1790    2.3415   36.1526 C   0  0  0  0  0  0  0  0  0  0  0  0
   16.8505    3.1874   37.0760 O   0  0  0  0  0  0  0  0  0  0  0  0
 25 26  1  0
 26 19  1  0
 19 20  2  0
 20 21  1  0
 21 22  2  0
 22 18  1  0
  1 18  1  0
  1  2  1  0
  2  3  2  0
  2  4  1  0
  4  5  1  0
  4  6  1  0
  6  7  1  0
  6  8  1  0
  8  9  1  0
  9 10  1  0
  9 14  1  0
 14 15  2  0
 14 16  1  0
 22 23  1  0
 23 24  2  0
 24 19  1  0
  9  1  1  0
  5 11  1  0
  7 12  1  0
 10 13  1  0
 16 17  1  0
M  END
> <minimizedAffinity>
-5.08780

> <CNNscore>
0.3940865397

> <CNNaffinity>
3.4518101215

> <CNN_VS>
1.3603118658

> <CNNaffinity_variance>
0.4704526961

$$$$



 26 27  0  0  0  0  0  0  0  0999 V2000
   22.2226    1.0265   39.1043 C   0  0  0  0  0  0  0  0  0  0  0  0
   22.2076   -0.3757   39.6981 C   0  0  0  0  0  0  0  0  0  0  0  0
   21.1416   -0.9703   39.8877 O   0  0  0  0  0  0  0  0  0  0  0  0
   23.5307   -1.0609   40.0106 C   0  0  0  0  0  0  0  0  0  0  0  0
   23.4280   -2.4664   39.7691 O   0  0  0  0  0  0  0  0  0  0  0  0
   24.6263   -0.5038   39.1137 C   0  0  0  0  0  0  0  0  0  0  0  0
   25.8652   -1.1584   39.3969 O   0  0  0  0  0  0  0  0  0  0  0  0
   24.8156    0.9997   39.2816 C   0  0  0  0  0  0  0  0  0  0  0  0
   23.5078    1.7831   39.4921 C   0  0  0  0  0  0  0  0  0  0  0  0
   23.6323    2.9817   38.7087 O   0  0  0  0  0  0  0  0  0  0  0  0
   23.2143   -2.6193   38.8354 H   0  0  0  0  0  0  0  0  0  0  0  0
   26.1224   -0.9806   40.3151 H   0  0  0  0  0  0  0  0  0  0  0  0
   24.4437    3.4497   38.9605 H   0  0  0  0  0  0  0  0  0  0  0  0
   23.3690    2.1867   40.9733 C   0  0  0  0  0  0  0  0  0  0  0  0
   24.1931    2.0041   41.8530 O   0  0  0  0  0  0  0  0  0  0  0  0
   22.1602    2.7227   41.2551 O   0  0  0  0  0  0  0  0  0  0  0  0
   21.5361    2.8576   40.5693 H   0  0  0  0  0  0  0  0  0  0  0  0
   21.9806    0.9160   37.5844 C   0  0  0  0  0  0  0  0  0  0  0  0
   18.0453    2.2936   36.4235 C   0  0  0  0  0  0  0  0  0  0  0  0
   18.8877    1.6885   35.4895 C   0  0  0  0  0  0  0  0  0  0  0  0
   20.1554    1.2339   35.8600 C   0  0  0  0  0  0  0  0  0  0  0  0
   20.6020    1.3824   37.1764 C   0  0  0  0  0  0  0  0  0  0  0  0
   19.7513    1.9826   38.1141 C   0  0  0  0  0  0  0  0  0  0  0  0
   18.4820    2.4371   37.7399 C   0  0  0  0  0  0  0  0  0  0  0  0
   15.7210    2.6118   36.8030 C   0  0  0  0  0  0  0  0  0  0  0  0
   16.8364    2.6987   35.9270 O   0  0  0  0  0  0  0  0  0  0  0  0
 25 26  1  0
 26 19  1  0
 19 20  2  0
 20 21  1  0
 21 22  2  0
 22 18  1  0
  1 18  1  0
  1  2  1  0
  2  3  2  0
  2  4  1  0
  4  5  1  0
  4  6  1  0
  6  7  1  0
  6  8  1  0
  8  9  1  0
  9 10  1  0
  9 14  1  0
 14 15  2  0
 14 16  1  0
 22 23  1  0
 23 24  2  0
 24 19  1  0
  9  1  1  0
  5 11  1  0
  7 12  1  0
 10 13  1  0
 16 17  1  0
M  END
> <minimizedAffinity>
-6.27510

> <CNNscore>
0.3108912110

> <CNNaffinity>
3.0997402668

> <CNN_VS>
0.9636819959

> <CNNaffinity_variance>
1.0473768711

$$$$



 26 27  0  0  0  0  0  0  0  0999 V2000
   13.7762    3.2776   40.2227 C   0  0  0  0  0  0  0  0  0  0  0  0
   13.6168    3.7465   38.7828 C   0  0  0  0  0  0  0  0  0  0  0  0
   14.2383    4.7292   38.3657 O   0  0  0  0  0  0  0  0  0  0  0  0
   12.7164    2.9567   37.8429 C   0  0  0  0  0  0  0  0  0  0  0  0
   13.2530    2.9701   36.5178 O   0  0  0  0  0  0  0  0  0  0  0  0
   12.6286    1.5097   38.3051 C   0  0  0  0  0  0  0  0  0  0  0  0
   11.7955    0.7650   37.4135 O   0  0  0  0  0  0  0  0  0  0  0  0
   12.0761    1.3770   39.7199 C   0  0  0  0  0  0  0  0  0  0  0  0
   12.5447    2.4770   40.6887 C   0  0  0  0  0  0  0  0  0  0  0  0
   12.8256    1.8165   41.9339 O   0  0  0  0  0  0  0  0  0  0  0  0
   14.1319    2.5596   36.5207 H   0  0  0  0  0  0  0  0  0  0  0  0
   10.8972    1.1305   37.4293 H   0  0  0  0  0  0  0  0  0  0  0  0
   12.0447    1.3160   42.2178 H   0  0  0  0  0  0  0  0  0  0  0  0
   11.4067    3.4895   40.9252 C   0  0  0  0  0  0  0  0  0  0  0  0
   10.4298    3.6584   40.2156 O   0  0  0  0  0  0  0  0  0  0  0  0
   11.6255    4.2752   42.0035 O   0  0  0  0  0  0  0  0  0  0  0  0
   12.3804    4.1344   42.5404 H   0  0  0  0  0  0  0  0  0  0  0  0
   15.1144    2.5188   40.3441 C   0  0  0  0  0  0  0  0  0  0  0  0
   17.5854    2.9534   36.8175 C   0  0  0  0  0  0  0  0  0  0  0  0
   18.0966    2.3570   37.9711 C   0  0  0  0  0  0  0  0  0  0  0  0
   17.3016    2.2059   39.1095 C   0  0  0  0  0  0  0  0  0  0  0  0
   15.9777    2.6551   39.1110 C   0  0  0  0  0  0  0  0  0  0  0  0
   15.4641    3.2458   37.9489 C   0  0  0  0  0  0  0  0  0  0  0  0
   16.2631    3.3959   36.8101 C   0  0  0  0  0  0  0  0  0  0  0  0
   19.4507    2.0206   35.6781 C   0  0  0  0  0  0  0  0  0  0  0  0
   18.4716    3.0454   35.7790 O   0  0  0  0  0  0  0  0  0  0  0  0
 25 26  1  0
 26 19  1  0
 19 20  2  0
 20 21  1  0
 21 22  2  0
 22 18  1  0
  1 18  1  0
  1  2  1  0
  2  3  2  0
  2  4  1  0
  4  5  1  0
  4  6  1  0
  6  7  1  0
  6  8  1  0
  8  9  1  0
  9 10  1  0
  9 14  1  0
 14 15  2  0
 14 16  1  0
 22 23  1  0
 23 24  2  0
 24 19  1  0
  9  1  1  0
  5 11  1  0
  7 12  1  0
 10 13  1  0
 16 17  1  0
M  END
> <minimizedAffinity>
-6.17879

> <CNNscore>
0.2858806252

> <CNNaffinity>
4.5664925575

> <CNN_VS>
1.3054717779

> <CNNaffinity_variance>
0.1298540384

$$$$



 26 27  0  0  0  0  0  0  0  0999 V2000
   12.8274   -5.6165   29.3944 C   0  0  0  0  0  0  0  0  0  0  0  0
   11.4848   -6.2986   29.1691 C   0  0  0  0  0  0  0  0  0  0  0  0
   11.1524   -7.2782   29.8442 O   0  0  0  0  0  0  0  0  0  0  0  0
   10.5292   -5.7263   28.1312 C   0  0  0  0  0  0  0  0  0  0  0  0
    9.1761   -5.8870   28.5640 O   0  0  0  0  0  0  0  0  0  0  0  0
   10.7955   -4.2396   27.9469 C   0  0  0  0  0  0  0  0  0  0  0  0
    9.8878   -3.6996   26.9836 O   0  0  0  0  0  0  0  0  0  0  0  0
   12.2222   -3.9496   27.4942 C   0  0  0  0  0  0  0  0  0  0  0  0
   13.2868   -4.8581   28.1341 C   0  0  0  0  0  0  0  0  0  0  0  0
   14.4004   -4.0053   28.4475 O   0  0  0  0  0  0  0  0  0  0  0  0
    9.0452   -5.4115   29.3993 H   0  0  0  0  0  0  0  0  0  0  0  0
   10.0327   -4.1295   26.1263 H   0  0  0  0  0  0  0  0  0  0  0  0
   14.6813   -3.5332   27.6481 H   0  0  0  0  0  0  0  0  0  0  0  0
   13.7591   -5.9137   27.1148 C   0  0  0  0  0  0  0  0  0  0  0  0
   13.3393   -6.0616   25.9797 O   0  0  0  0  0  0  0  0  0  0  0  0
   14.6758   -6.7623   27.6319 O   0  0  0  0  0  0  0  0  0  0  0  0
   14.9898   -6.6370   28.5057 H   0  0  0  0  0  0  0  0  0  0  0  0
   12.7253   -4.7437   30.6629 C   0  0  0  0  0  0  0  0  0  0  0  0
   12.3520   -7.1078   34.2689 C   0  0  0  0  0  0  0  0  0  0  0  0
   13.4386   -7.2900   33.4122 C   0  0  0  0  0  0  0  0  0  0  0  0
   13.5693   -6.5241   32.2515 C   0  0  0  0  0  0  0  0  0  0  0  0
   12.6076   -5.5624   31.9280 C   0  0  0  0  0  0  0  0  0  0  0  0
   11.5221   -5.3755   32.7939 C   0  0  0  0  0  0  0  0  0  0  0  0
   11.3938   -6.1444   33.9559 C   0  0  0  0  0  0  0  0  0  0  0  0
   12.0480   -7.3225   36.6162 C   0  0  0  0  0  0  0  0  0  0  0  0
   12.3423   -7.9275   35.3646 O   0  0  0  0  0  0  0  0  0  0  0  0
 25 26  1  0
 26 19  1  0
 19 20  2  0
 20 21  1  0
 21 22  2  0
 22 18  1  0
  1 18  1  0
  1  2  1  0
  2  3  2  0
  2  4  1  0
  4  5  1  0
  4  6  1  0
  6  7  1  0
  6  8  1  0
  8  9  1  0
  9 10  1  0
  9 14  1  0
 14 15  2  0
 14 16  1  0
 22 23  1  0
 23 24  2  0
 24 19  1  0
  9  1  1  0
  5 11  1  0
  7 12  1  0
 10 13  1  0
 16 17  1  0
M  END
> <minimizedAffinity>
-4.98459

> <CNNscore>
0.2840075493

> <CNNaffinity>
3.0009078979

> <CNN_VS>
0.8522804976

> <CNNaffinity_variance>
0.8736378551

$$$$



 26 27  0  0  0  0  0  0  0  0999 V2000
   15.4049    6.2065   46.7223 C   0  0  0  0  0  0  0  0  0  0  0  0
   16.7395    5.9156   47.3953 C   0  0  0  0  0  0  0  0  0  0  0  0
   17.7822    6.4324   46.9809 O   0  0  0  0  0  0  0  0  0  0  0  0
   16.7684    5.0154   48.6227 C   0  0  0  0  0  0  0  0  0  0  0  0
   17.7745    5.4587   49.5367 O   0  0  0  0  0  0  0  0  0  0  0  0
   15.4244    5.0673   49.3341 C   0  0  0  0  0  0  0  0  0  0  0  0
   15.4571    4.2339   50.4951 O   0  0  0  0  0  0  0  0  0  0  0  0
   14.2700    4.6230   48.4428 C   0  0  0  0  0  0  0  0  0  0  0  0
   14.3928    5.0726   46.9762 C   0  0  0  0  0  0  0  0  0  0  0  0
   13.0757    5.4855   46.5756 O   0  0  0  0  0  0  0  0  0  0  0  0
   17.5753    6.3640   49.8226 H   0  0  0  0  0  0  0  0  0  0  0  0
   15.6098    3.3138   50.2284 H   0  0  0  0  0  0  0  0  0  0  0  0
   12.4472    4.7650   46.7395 H   0  0  0  0  0  0  0  0  0  0  0  0
   14.8142    3.8806   46.0942 C   0  0  0  0  0  0  0  0  0  0  0  0
   15.2553    2.8129   46.4838 O   0  0  0  0  0  0  0  0  0  0  0  0
   14.7232    4.1535   44.7731 O   0  0  0  0  0  0  0  0  0  0  0  0
   14.3823    4.9782   44.4874 H   0  0  0  0  0  0  0  0  0  0  0  0
   14.9254    7.6028   47.1714 C   0  0  0  0  0  0  0  0  0  0  0  0
   16.8988   10.8239   45.0592 C   0  0  0  0  0  0  0  0  0  0  0  0
   16.6628   10.9171   46.4316 C   0  0  0  0  0  0  0  0  0  0  0  0
   16.0343    9.8773   47.1205 C   0  0  0  0  0  0  0  0  0  0  0  0
   15.6276    8.7248   46.4418 C   0  0  0  0  0  0  0  0  0  0  0  0
   15.8731    8.6299   45.0656 C   0  0  0  0  0  0  0  0  0  0  0  0
   16.5028    9.6734   44.3782 C   0  0  0  0  0  0  0  0  0  0  0  0
   18.7326   11.6815   43.8144 C   0  0  0  0  0  0  0  0  0  0  0  0
   17.5147   11.9145   44.5082 O   0  0  0  0  0  0  0  0  0  0  0  0
 25 26  1  0
 26 19  1  0
 19 20  2  0
 20 21  1  0
 21 22  2  0
 22 18  1  0
  1 18  1  0
  1  2  1  0
  2  3  2  0
  2  4  1  0
  4  5  1  0
  4  6  1  0
  6  7  1  0
  6  8  1  0
  8  9  1  0
  9 10  1  0
  9 14  1  0
 14 15  2  0
 14 16  1  0
 22 23  1  0
 23 24  2  0
 24 19  1  0
  9  1  1  0
  5 11  1  0
  7 12  1  0
 10 13  1  0
 16 17  1  0
M  END
> <minimizedAffinity>
-4.72900

> <CNNscore>
0.2709652781

> <CNNaffinity>
3.2564861774

> <CNN_VS>
0.8823946714

> <CNNaffinity_variance>
0.5666826367

$$$$



 26 27  0  0  0  0  0  0  0  0999 V2000
   12.2053   -4.9757   29.3140 C   0  0  0  0  0  0  0  0  0  0  0  0
   13.0149   -3.6944   29.1662 C   0  0  0  0  0  0  0  0  0  0  0  0
   13.0985   -2.8886   30.0986 O   0  0  0  0  0  0  0  0  0  0  0  0
   13.7659   -3.4397   27.8666 C   0  0  0  0  0  0  0  0  0  0  0  0
   14.9943   -2.7579   28.1317 O   0  0  0  0  0  0  0  0  0  0  0  0
   14.0935   -4.7629   27.1906 C   0  0  0  0  0  0  0  0  0  0  0  0
   14.8122   -4.5237   25.9782 O   0  0  0  0  0  0  0  0  0  0  0  0
   12.8490   -5.5833   26.8703 C   0  0  0  0  0  0  0  0  0  0  0  0
   11.7476   -5.5082   27.9423 C   0  0  0  0  0  0  0  0  0  0  0  0
   11.2318   -6.8430   28.0763 O   0  0  0  0  0  0  0  0  0  0  0  0
   15.5505   -3.3058   28.7073 H   0  0  0  0  0  0  0  0  0  0  0  0
   14.2560   -4.0150   25.3676 H   0  0  0  0  0  0  0  0  0  0  0  0
   10.9468   -7.1682   27.2080 H   0  0  0  0  0  0  0  0  0  0  0  0
   10.6038   -4.5950   27.4583 C   0  0  0  0  0  0  0  0  0  0  0  0
   10.7251   -3.5331   26.8717 O   0  0  0  0  0  0  0  0  0  0  0  0
    9.3844   -5.0515   27.8224 O   0  0  0  0  0  0  0  0  0  0  0  0
    9.3056   -5.8693   28.2729 H   0  0  0  0  0  0  0  0  0  0  0  0
   13.0288   -5.9806   30.1466 C   0  0  0  0  0  0  0  0  0  0  0  0
   11.1755   -6.8472   33.9605 C   0  0  0  0  0  0  0  0  0  0  0  0
   11.3861   -7.8644   33.0282 C   0  0  0  0  0  0  0  0  0  0  0  0
   11.9917   -7.5927   31.7993 C   0  0  0  0  0  0  0  0  0  0  0  0
   12.3939   -6.2918   31.4825 C   0  0  0  0  0  0  0  0  0  0  0  0
   12.1891   -5.2740   32.4234 C   0  0  0  0  0  0  0  0  0  0  0  0
   11.5821   -5.5493   33.6536 C   0  0  0  0  0  0  0  0  0  0  0  0
    9.4819   -6.4562   35.5812 C   0  0  0  0  0  0  0  0  0  0  0  0
   10.5671   -7.2483   35.1186 O   0  0  0  0  0  0  0  0  0  0  0  0
 25 26  1  0
 26 19  1  0
 19 20  2  0
 20 21  1  0
 21 22  2  0
 22 18  1  0
  1 18  1  0
  1  2  1  0
  2  3  2  0
  2  4  1  0
  4  5  1  0
  4  6  1  0
  6  7  1  0
  6  8  1  0
  8  9  1  0
  9 10  1  0
  9 14  1  0
 14 15  2  0
 14 16  1  0
 22 23  1  0
 23 24  2  0
 24 19  1  0
  9  1  1  0
  5 11  1  0
  7 12  1  0
 10 13  1  0
 16 17  1  0
M  END
> <minimizedAffinity>
-5.57560

> <CNNscore>
0.2545799613

> <CNNaffinity>
3.2506363392

> <CNN_VS>
0.8275468946

> <CNNaffinity_variance>
0.9862162471

$$$$



 26 27  0  0  0  0  0  0  0  0999 V2000
   19.5292   10.5242   44.5293 C   0  0  0  0  0  0  0  0  0  0  0  0
   20.4512    9.3123   44.5327 C   0  0  0  0  0  0  0  0  0  0  0  0
   20.4480    8.5184   45.4790 O   0  0  0  0  0  0  0  0  0  0  0  0
   21.3464    9.0605   43.3272 C   0  0  0  0  0  0  0  0  0  0  0  0
   21.4844    7.6558   43.0996 O   0  0  0  0  0  0  0  0  0  0  0  0
   20.7285    9.6845   42.0847 C   0  0  0  0  0  0  0  0  0  0  0  0
   21.5618    9.4345   40.9503 O   0  0  0  0  0  0  0  0  0  0  0  0
   20.5243   11.1891   42.2221 C   0  0  0  0  0  0  0  0  0  0  0  0
   20.0808   11.6427   43.6241 C   0  0  0  0  0  0  0  0  0  0  0  0
   19.0782   12.6515   43.4167 O   0  0  0  0  0  0  0  0  0  0  0  0
   20.6124    7.2697   42.9224 H   0  0  0  0  0  0  0  0  0  0  0  0
   22.4267    9.8521   41.0862 H   0  0  0  0  0  0  0  0  0  0  0  0
   19.4355   13.3500   42.8463 H   0  0  0  0  0  0  0  0  0  0  0  0
   21.2671   12.2869   44.3684 C   0  0  0  0  0  0  0  0  0  0  0  0
   21.2990   12.5972   45.5470 O   0  0  0  0  0  0  0  0  0  0  0  0
   22.3047   12.5678   43.5484 O   0  0  0  0  0  0  0  0  0  0  0  0
   22.2670   12.3236   42.6445 H   0  0  0  0  0  0  0  0  0  0  0  0
   18.1051   10.0536   44.1669 C   0  0  0  0  0  0  0  0  0  0  0  0
   15.2833   10.6376   47.3962 C   0  0  0  0  0  0  0  0  0  0  0  0
   16.3407   11.5294   47.2099 C   0  0  0  0  0  0  0  0  0  0  0  0
   17.2494   11.3513   46.1644 C   0  0  0  0  0  0  0  0  0  0  0  0
   17.1146   10.2706   45.2879 C   0  0  0  0  0  0  0  0  0  0  0  0
   16.0475    9.3814   45.4718 C   0  0  0  0  0  0  0  0  0  0  0  0
   15.1388    9.5624   46.5203 C   0  0  0  0  0  0  0  0  0  0  0  0
   14.7697   10.2712   49.6875 C   0  0  0  0  0  0  0  0  0  0  0  0
   14.4728   10.9240   48.4608 O   0  0  0  0  0  0  0  0  0  0  0  0
 25 26  1  0
 26 19  1  0
 19 20  2  0
 20 21  1  0
 21 22  2  0
 22 18  1  0
  1 18  1  0
  1  2  1  0
  2  3  2  0
  2  4  1  0
  4  5  1  0
  4  6  1  0
  6  7  1  0
  6  8  1  0
  8  9  1  0
  9 10  1  0
  9 14  1  0
 14 15  2  0
 14 16  1  0
 22 23  1  0
 23 24  2  0
 24 19  1  0
  9  1  1  0
  5 11  1  0
  7 12  1  0
 10 13  1  0
 16 17  1  0
M  END
> <minimizedAffinity>
-4.66738

> <CNNscore>
0.2169693410

> <CNNaffinity>
2.7357130051

> <CNN_VS>
0.5935658216

> <CNNaffinity_variance>
0.9311483502

$$$$
