


 27 30  0  0  0  0  0  0  0  0999 V2000
   55.3754   11.2719   10.2607 C   0  0  0  0  0  0  0  0  0  0  0  0
   55.9786   10.9150    8.9546 C   0  0  0  0  0  0  0  0  0  0  0  0
   57.1701   11.4029    8.3847 C   0  0  0  0  0  0  0  0  0  0  0  0
   57.3417   10.6774    7.2248 C   0  0  0  0  0  0  0  0  0  0  0  0
   56.1404    9.9870    7.0317 N   0  0  0  0  0  0  0  0  0  0  0  0
   55.3985    9.9972    8.1779 N   0  0  0  0  0  0  0  0  0  0  0  0
   55.5398    9.4851    5.8395 C   0  0  0  0  0  0  0  0  0  0  0  0
   56.2993    8.8277    4.8630 C   0  0  0  0  0  0  0  0  0  0  0  0
   55.6819    8.3669    3.6993 C   0  0  0  0  0  0  0  0  0  0  0  0
   56.6212    7.5520    2.5078 Cl  0  0  0  0  0  0  0  0  0  0  0  0
   54.3210    8.5681    3.4832 C   0  0  0  0  0  0  0  0  0  0  0  0
   53.5745    9.2478    4.4421 C   0  0  0  0  0  0  0  0  0  0  0  0
   51.7291    9.5424    4.1519 Br  0  0  0  0  0  0  0  0  0  0  0  0
   54.1731    9.7149    5.6123 C   0  0  0  0  0  0  0  0  0  0  0  0
   58.4915   10.6635    6.4469 N   0  0  0  0  0  0  0  0  0  0  0  0
   59.6211   11.4042    6.7594 C   0  0  0  0  0  0  0  0  0  0  0  0
   59.7745   12.0683    7.7779 O   0  0  0  0  0  0  0  0  0  0  0  0
   58.5054   10.1030    5.6376 H   0  0  0  0  0  0  0  0  0  0  0  0
   60.6514   11.3665    5.7372 C   0  0  0  0  0  0  0  0  0  0  0  0
   61.9053   12.0101    5.7667 C   0  0  0  0  0  0  0  0  0  0  0  0
   62.6399   11.7843    4.6763 N   0  0  0  0  0  0  0  0  0  0  0  0
   61.8642   10.9851    3.9094 N   0  0  0  0  0  0  0  0  0  0  0  0
   62.1638   10.4565    2.6584 C   0  0  0  0  0  0  0  0  0  0  0  0
   61.2779    9.6796    2.0212 C   0  0  0  0  0  0  0  0  0  0  0  0
   59.9985    9.4512    2.7480 C   0  0  0  0  0  0  0  0  0  0  0  0
   59.6791    9.9268    3.9166 N   0  0  0  0  0  0  0  0  0  0  0  0
   60.6343   10.7096    4.5202 C   0  0  0  0  0  0  0  0  0  0  0  0
  1  2  1  0
  2  3  1  0
  3  4  2  0
  4 15  1  0
 15 16  1  0
 16 17  2  0
 16 19  1  0
 19 20  1  0
 20 21  2  0
 21 22  1  0
 22 23  1  0
 23 24  2  0
 24 25  1  0
 25 26  2  0
 26 27  1  0
  4  5  1  0
  5  7  1  0
  7  8  2  0
  8  9  1  0
  9 10  1  0
  9 11  2  0
 11 12  1  0
 12 13  1  0
 12 14  2  0
  5  6  1  0
  6  2  2  0
 27 19  2  0
 14  7  1  0
 27 22  1  0
 15 18  1  0
M  END
> <minimizedAffinity>
-9.05787

> <CNNscore>
0.7553481460

> <CNNaffinity>
7.4655327797

> <CNN_VS>
5.6390762329

> <CNNaffinity_variance>
0.0258746147

$$$$



 27 30  0  0  0  0  0  0  0  0999 V2000
   62.0826    9.9295    2.0674 C   0  0  0  0  0  0  0  0  0  0  0  0
   60.8719    9.9188    2.9226 C   0  0  0  0  0  0  0  0  0  0  0  0
   60.7901   10.1020    4.3163 C   0  0  0  0  0  0  0  0  0  0  0  0
   59.4413   10.1154    4.6022 C   0  0  0  0  0  0  0  0  0  0  0  0
   58.8040    9.6939    3.4304 N   0  0  0  0  0  0  0  0  0  0  0  0
   59.6661    9.7565    2.3734 N   0  0  0  0  0  0  0  0  0  0  0  0
   57.5378    9.0667    3.2368 C   0  0  0  0  0  0  0  0  0  0  0  0
   56.5404    9.1223    4.2188 C   0  0  0  0  0  0  0  0  0  0  0  0
   55.3200    8.4802    4.0037 C   0  0  0  0  0  0  0  0  0  0  0  0
   54.0959    8.5608    5.2124 Cl  0  0  0  0  0  0  0  0  0  0  0  0
   55.0840    7.7656    2.8320 C   0  0  0  0  0  0  0  0  0  0  0  0
   56.0880    7.6874    1.8705 C   0  0  0  0  0  0  0  0  0  0  0  0
   55.7853    6.7053    0.2829 Br  0  0  0  0  0  0  0  0  0  0  0  0
   57.3139    8.3234    2.0664 C   0  0  0  0  0  0  0  0  0  0  0  0
   58.8798   10.4851    5.8170 N   0  0  0  0  0  0  0  0  0  0  0  0
   59.4129   11.4809    6.6209 C   0  0  0  0  0  0  0  0  0  0  0  0
   60.3605   12.1997    6.3256 O   0  0  0  0  0  0  0  0  0  0  0  0
   58.0673   10.0196    6.1209 H   0  0  0  0  0  0  0  0  0  0  0  0
   58.7643   11.6039    7.9141 C   0  0  0  0  0  0  0  0  0  0  0  0
   59.2993   12.1793    9.0846 C   0  0  0  0  0  0  0  0  0  0  0  0
   58.4584   12.1476   10.1197 N   0  0  0  0  0  0  0  0  0  0  0  0
   57.3524   11.5396    9.6343 N   0  0  0  0  0  0  0  0  0  0  0  0
   56.1711   11.2573   10.3117 C   0  0  0  0  0  0  0  0  0  0  0  0
   55.1613   10.6398    9.6845 C   0  0  0  0  0  0  0  0  0  0  0  0
   55.4171   10.2972    8.2582 C   0  0  0  0  0  0  0  0  0  0  0  0
   56.5060   10.5424    7.5888 N   0  0  0  0  0  0  0  0  0  0  0  0
   57.5004   11.1849    8.2875 C   0  0  0  0  0  0  0  0  0  0  0  0
  1  2  1  0
  2  3  1  0
  3  4  2  0
  4 15  1  0
 15 16  1  0
 16 17  2  0
 16 19  1  0
 19 20  1  0
 20 21  2  0
 21 22  1  0
 22 23  1  0
 23 24  2  0
 24 25  1  0
 25 26  2  0
 26 27  1  0
  4  5  1  0
  5  7  1  0
  7  8  2  0
  8  9  1  0
  9 10  1  0
  9 11  2  0
 11 12  1  0
 12 13  1  0
 12 14  2  0
  5  6  1  0
  6  2  2  0
 27 19  2  0
 14  7  1  0
 27 22  1  0
 15 18  1  0
M  END
> <minimizedAffinity>
-8.37979

> <CNNscore>
0.4225642979

> <CNNaffinity>
7.4477920532

> <CNN_VS>
3.1471710205

> <CNNaffinity_variance>
0.1796561480

$$$$



 27 30  0  0  0  0  0  0  0  0999 V2000
   55.4776    6.6429   -0.5295 C   0  0  0  0  0  0  0  0  0  0  0  0
   56.0594    7.4987    0.5318 C   0  0  0  0  0  0  0  0  0  0  0  0
   57.4185    7.7606    0.7902 C   0  0  0  0  0  0  0  0  0  0  0  0
   57.4221    8.6982    1.8011 C   0  0  0  0  0  0  0  0  0  0  0  0
   56.1026    8.7596    2.2619 N   0  0  0  0  0  0  0  0  0  0  0  0
   55.2597    8.1674    1.3657 N   0  0  0  0  0  0  0  0  0  0  0  0
   55.5801    9.1462    3.5313 C   0  0  0  0  0  0  0  0  0  0  0  0
   56.4271    9.4758    4.5973 C   0  0  0  0  0  0  0  0  0  0  0  0
   55.8811    9.8306    5.8318 C   0  0  0  0  0  0  0  0  0  0  0  0
   56.9294   10.2428    7.1345 Cl  0  0  0  0  0  0  0  0  0  0  0  0
   54.5025    9.8434    6.0276 C   0  0  0  0  0  0  0  0  0  0  0  0
   53.6639    9.4868    4.9749 C   0  0  0  0  0  0  0  0  0  0  0  0
   51.7905    9.4836    5.2338 Br  0  0  0  0  0  0  0  0  0  0  0  0
   54.1903    9.1304    3.7331 C   0  0  0  0  0  0  0  0  0  0  0  0
   58.5317    9.4124    2.2325 N   0  0  0  0  0  0  0  0  0  0  0  0
   59.8114    9.1772    1.7535 C   0  0  0  0  0  0  0  0  0  0  0  0
   60.0992    8.3999    0.8508 O   0  0  0  0  0  0  0  0  0  0  0  0
   58.4044   10.1168    2.9084 H   0  0  0  0  0  0  0  0  0  0  0  0
   60.8457    9.9254    2.4452 C   0  0  0  0  0  0  0  0  0  0  0  0
   62.1270   10.2569    1.9596 C   0  0  0  0  0  0  0  0  0  0  0  0
   62.8561   10.9570    2.8301 N   0  0  0  0  0  0  0  0  0  0  0  0
   62.0529   11.0891    3.9099 N   0  0  0  0  0  0  0  0  0  0  0  0
   62.3360   11.7413    5.1051 C   0  0  0  0  0  0  0  0  0  0  0  0
   61.4270   11.7787    6.0884 C   0  0  0  0  0  0  0  0  0  0  0  0
   60.1447   11.0824    5.7918 C   0  0  0  0  0  0  0  0  0  0  0  0
   59.8409   10.4611    4.6892 N   0  0  0  0  0  0  0  0  0  0  0  0
   60.8133   10.4660    3.7177 C   0  0  0  0  0  0  0  0  0  0  0  0
  1  2  1  0
  2  3  1  0
  3  4  2  0
  4 15  1  0
 15 16  1  0
 16 17  2  0
 16 19  1  0
 19 20  1  0
 20 21  2  0
 21 22  1  0
 22 23  1  0
 23 24  2  0
 24 25  1  0
 25 26  2  0
 26 27  1  0
  4  5  1  0
  5  7  1  0
  7  8  2  0
  8  9  1  0
  9 10  1  0
  9 11  2  0
 11 12  1  0
 12 13  1  0
 12 14  2  0
  5  6  1  0
  6  2  2  0
 27 19  2  0
 14  7  1  0
 27 22  1  0
 15 18  1  0
M  END
> <minimizedAffinity>
-9.18948

> <CNNscore>
0.2816510797

> <CNNaffinity>
7.0675067902

> <CNN_VS>
1.9905709028

> <CNNaffinity_variance>
0.0630036145

$$$$



 27 30  0  0  0  0  0  0  0  0999 V2000
   55.4154   11.0111    8.0758 C   0  0  0  0  0  0  0  0  0  0  0  0
   55.9379   10.5301    6.7746 C   0  0  0  0  0  0  0  0  0  0  0  0
   55.3924    9.5455    5.9287 C   0  0  0  0  0  0  0  0  0  0  0  0
   56.1873    9.5535    4.8022 C   0  0  0  0  0  0  0  0  0  0  0  0
   57.2946   10.3437    5.1285 N   0  0  0  0  0  0  0  0  0  0  0  0
   57.0405   11.0737    6.2541 N   0  0  0  0  0  0  0  0  0  0  0  0
   58.6213   10.3434    4.6054 C   0  0  0  0  0  0  0  0  0  0  0  0
   58.9174    9.7479    3.3725 C   0  0  0  0  0  0  0  0  0  0  0  0
   60.2308    9.7489    2.9004 C   0  0  0  0  0  0  0  0  0  0  0  0
   60.5848    9.0224    1.3796 Cl  0  0  0  0  0  0  0  0  0  0  0  0
   61.2595   10.3173    3.6474 C   0  0  0  0  0  0  0  0  0  0  0  0
   60.9671   10.8822    4.8859 C   0  0  0  0  0  0  0  0  0  0  0  0
   62.3586   11.6418    5.9172 Br  0  0  0  0  0  0  0  0  0  0  0  0
   59.6605   10.8923    5.3744 C   0  0  0  0  0  0  0  0  0  0  0  0
   55.9012    8.9007    3.6107 N   0  0  0  0  0  0  0  0  0  0  0  0
   56.4467    7.6708    3.2762 C   0  0  0  0  0  0  0  0  0  0  0  0
   57.1522    6.9852    4.0071 O   0  0  0  0  0  0  0  0  0  0  0  0
   55.2838    9.3301    2.9753 H   0  0  0  0  0  0  0  0  0  0  0  0
   56.1392    7.2382    1.9248 C   0  0  0  0  0  0  0  0  0  0  0  0
   57.0239    6.6564    0.9941 C   0  0  0  0  0  0  0  0  0  0  0  0
   56.4450    6.3619   -0.1711 N   0  0  0  0  0  0  0  0  0  0  0  0
   55.1610    6.7567   -0.0164 N   0  0  0  0  0  0  0  0  0  0  0  0
   54.1279    6.6716   -0.9435 C   0  0  0  0  0  0  0  0  0  0  0  0
   52.9023    7.1159   -0.6352 C   0  0  0  0  0  0  0  0  0  0  0  0
   52.7618    7.6871    0.7327 C   0  0  0  0  0  0  0  0  0  0  0  0
   53.7011    7.7858    1.6282 N   0  0  0  0  0  0  0  0  0  0  0  0
   54.9327    7.3049    1.2521 C   0  0  0  0  0  0  0  0  0  0  0  0
  1  2  1  0
  2  3  1  0
  3  4  2  0
  4 15  1  0
 15 16  1  0
 16 17  2  0
 16 19  1  0
 19 20  1  0
 20 21  2  0
 21 22  1  0
 22 23  1  0
 23 24  2  0
 24 25  1  0
 25 26  2  0
 26 27  1  0
  4  5  1  0
  5  7  1  0
  7  8  2  0
  8  9  1  0
  9 10  1  0
  9 11  2  0
 11 12  1  0
 12 13  1  0
 12 14  2  0
  5  6  1  0
  6  2  2  0
 27 19  2  0
 14  7  1  0
 27 22  1  0
 15 18  1  0
M  END
> <minimizedAffinity>
-8.12704

> <CNNscore>
0.2075568885

> <CNNaffinity>
6.2776818275

> <CNN_VS>
1.3029761314

> <CNNaffinity_variance>
0.2713344991

$$$$



 27 30  0  0  0  0  0  0  0  0999 V2000
   56.6706   11.1829    9.1261 C   0  0  0  0  0  0  0  0  0  0  0  0
   56.9135   10.7493    7.7296 C   0  0  0  0  0  0  0  0  0  0  0  0
   56.1466    9.8643    6.9480 C   0  0  0  0  0  0  0  0  0  0  0  0
   56.7286    9.8858    5.6982 C   0  0  0  0  0  0  0  0  0  0  0  0
   57.9387   10.5691    5.8584 N   0  0  0  0  0  0  0  0  0  0  0  0
   57.9492   11.2421    7.0464 N   0  0  0  0  0  0  0  0  0  0  0  0
   59.1479   10.5042    5.1050 C   0  0  0  0  0  0  0  0  0  0  0  0
   60.3208   11.1227    5.5565 C   0  0  0  0  0  0  0  0  0  0  0  0
   61.4810   11.0556    4.7837 C   0  0  0  0  0  0  0  0  0  0  0  0
   62.9211   11.8113    5.3504 Cl  0  0  0  0  0  0  0  0  0  0  0  0
   61.4865   10.3975    3.5565 C   0  0  0  0  0  0  0  0  0  0  0  0
   60.3115    9.8090    3.0965 C   0  0  0  0  0  0  0  0  0  0  0  0
   60.3022    8.9274    1.4233 Br  0  0  0  0  0  0  0  0  0  0  0  0
   59.1420    9.8641    3.8549 C   0  0  0  0  0  0  0  0  0  0  0  0
   56.1832    9.3339    4.5469 N   0  0  0  0  0  0  0  0  0  0  0  0
   56.5651    8.0968    4.0510 C   0  0  0  0  0  0  0  0  0  0  0  0
   57.3377    7.3201    4.6003 O   0  0  0  0  0  0  0  0  0  0  0  0
   55.4951    9.8435    4.0611 H   0  0  0  0  0  0  0  0  0  0  0  0
   55.9864    7.7763    2.7586 C   0  0  0  0  0  0  0  0  0  0  0  0
   56.6711    7.3685    1.5956 C   0  0  0  0  0  0  0  0  0  0  0  0
   55.8622    7.1429    0.5591 N   0  0  0  0  0  0  0  0  0  0  0  0
   54.6250    7.4084    1.0358 N   0  0  0  0  0  0  0  0  0  0  0  0
   53.4158    7.3277    0.3535 C   0  0  0  0  0  0  0  0  0  0  0  0
   52.2671    7.6319    0.9719 C   0  0  0  0  0  0  0  0  0  0  0  0
   52.4056    8.0497    2.3944 C   0  0  0  0  0  0  0  0  0  0  0  0
   53.5156    8.1390    3.0681 N   0  0  0  0  0  0  0  0  0  0  0  0
   54.6570    7.8057    2.3785 C   0  0  0  0  0  0  0  0  0  0  0  0
  1  2  1  0
  2  3  1  0
  3  4  2  0
  4 15  1  0
 15 16  1  0
 16 17  2  0
 16 19  1  0
 19 20  1  0
 20 21  2  0
 21 22  1  0
 22 23  1  0
 23 24  2  0
 24 25  1  0
 25 26  2  0
 26 27  1  0
  4  5  1  0
  5  7  1  0
  7  8  2  0
  8  9  1  0
  9 10  1  0
  9 11  2  0
 11 12  1  0
 12 13  1  0
 12 14  2  0
  5  6  1  0
  6  2  2  0
 27 19  2  0
 14  7  1  0
 27 22  1  0
 15 18  1  0
M  END
> <minimizedAffinity>
-8.70125

> <CNNscore>
0.1903752387

> <CNNaffinity>
6.3712291718

> <CNN_VS>
1.2129242420

> <CNNaffinity_variance>
0.2288755625

$$$$



 27 30  0  0  0  0  0  0  0  0999 V2000
   53.7378    7.9501    2.5867 C   0  0  0  0  0  0  0  0  0  0  0  0
   54.6583    8.4465    3.6373 C   0  0  0  0  0  0  0  0  0  0  0  0
   54.3313    8.9836    4.8971 C   0  0  0  0  0  0  0  0  0  0  0  0
   55.5391    9.1838    5.5312 C   0  0  0  0  0  0  0  0  0  0  0  0
   56.5159    9.0006    4.5467 N   0  0  0  0  0  0  0  0  0  0  0  0
   55.9792    8.3772    3.4569 N   0  0  0  0  0  0  0  0  0  0  0  0
   57.8430    9.5137    4.4494 C   0  0  0  0  0  0  0  0  0  0  0  0
   58.6629    9.2084    3.3553 C   0  0  0  0  0  0  0  0  0  0  0  0
   59.9635    9.7120    3.3026 C   0  0  0  0  0  0  0  0  0  0  0  0
   60.9619    9.3391    1.9498 Cl  0  0  0  0  0  0  0  0  0  0  0  0
   60.4682   10.5002    4.3336 C   0  0  0  0  0  0  0  0  0  0  0  0
   59.6611   10.7776    5.4336 C   0  0  0  0  0  0  0  0  0  0  0  0
   60.3414   11.8327    6.8482 Br  0  0  0  0  0  0  0  0  0  0  0  0
   58.3580   10.2847    5.5043 C   0  0  0  0  0  0  0  0  0  0  0  0
   55.7010    9.4953    6.8745 N   0  0  0  0  0  0  0  0  0  0  0  0
   55.1089   10.5996    7.4680 C   0  0  0  0  0  0  0  0  0  0  0  0
   54.3191   11.3606    6.9212 O   0  0  0  0  0  0  0  0  0  0  0  0
   56.2608    8.9061    7.4301 H   0  0  0  0  0  0  0  0  0  0  0  0
   55.5292   10.8273    8.8389 C   0  0  0  0  0  0  0  0  0  0  0  0
   56.1577    9.9066    9.7019 C   0  0  0  0  0  0  0  0  0  0  0  0
   56.4258   10.4116   10.9071 N   0  0  0  0  0  0  0  0  0  0  0  0
   55.9659   11.6818   10.8479 N   0  0  0  0  0  0  0  0  0  0  0  0
   56.0011   12.6461   11.8494 C   0  0  0  0  0  0  0  0  0  0  0  0
   55.4943   13.8671   11.6327 C   0  0  0  0  0  0  0  0  0  0  0  0
   54.9128   14.0797   10.2785 C   0  0  0  0  0  0  0  0  0  0  0  0
   54.8594   13.2057    9.3155 N   0  0  0  0  0  0  0  0  0  0  0  0
   55.4032   11.9756    9.5994 C   0  0  0  0  0  0  0  0  0  0  0  0
  1  2  1  0
  2  3  1  0
  3  4  2  0
  4 15  1  0
 15 16  1  0
 16 17  2  0
 16 19  1  0
 19 20  1  0
 20 21  2  0
 21 22  1  0
 22 23  1  0
 23 24  2  0
 24 25  1  0
 25 26  2  0
 26 27  1  0
  4  5  1  0
  5  7  1  0
  7  8  2  0
  8  9  1  0
  9 10  1  0
  9 11  2  0
 11 12  1  0
 12 13  1  0
 12 14  2  0
  5  6  1  0
  6  2  2  0
 27 19  2  0
 14  7  1  0
 27 22  1  0
 15 18  1  0
M  END
> <minimizedAffinity>
-9.17982

> <CNNscore>
0.1469899714

> <CNNaffinity>
5.7055263519

> <CNN_VS>
0.8386551738

> <CNNaffinity_variance>
0.4142104685

$$$$



 27 30  0  0  0  0  0  0  0  0999 V2000
   51.9134    9.0061    6.2233 C   0  0  0  0  0  0  0  0  0  0  0  0
   53.3433    9.3169    5.9862 C   0  0  0  0  0  0  0  0  0  0  0  0
   54.1982    8.7819    5.0036 C   0  0  0  0  0  0  0  0  0  0  0  0
   55.3817    9.4770    5.1344 C   0  0  0  0  0  0  0  0  0  0  0  0
   55.2647   10.1983    6.3273 N   0  0  0  0  0  0  0  0  0  0  0  0
   53.9614   10.2346    6.7331 N   0  0  0  0  0  0  0  0  0  0  0  0
   56.2655   10.6921    7.2152 C   0  0  0  0  0  0  0  0  0  0  0  0
   57.5623   10.9733    6.7661 C   0  0  0  0  0  0  0  0  0  0  0  0
   58.5221   11.4365    7.6672 C   0  0  0  0  0  0  0  0  0  0  0  0
   60.1116   11.7882    7.1051 Cl  0  0  0  0  0  0  0  0  0  0  0  0
   58.2159   11.6059    9.0150 C   0  0  0  0  0  0  0  0  0  0  0  0
   56.9346   11.2976    9.4640 C   0  0  0  0  0  0  0  0  0  0  0  0
   56.5118   11.5070   11.2955 Br  0  0  0  0  0  0  0  0  0  0  0  0
   55.9609   10.8345    8.5788 C   0  0  0  0  0  0  0  0  0  0  0  0
   56.4401    9.4403    4.2365 N   0  0  0  0  0  0  0  0  0  0  0  0
   56.2794    9.1261    2.8957 C   0  0  0  0  0  0  0  0  0  0  0  0
   55.2061    8.9399    2.3344 O   0  0  0  0  0  0  0  0  0  0  0  0
   57.3444    9.6464    4.5665 H   0  0  0  0  0  0  0  0  0  0  0  0
   57.5289    8.9942    2.1681 C   0  0  0  0  0  0  0  0  0  0  0  0
   57.7107    8.4590    0.8766 C   0  0  0  0  0  0  0  0  0  0  0  0
   58.9823    8.4744    0.4735 N   0  0  0  0  0  0  0  0  0  0  0  0
   59.6558    9.0216    1.5105 N   0  0  0  0  0  0  0  0  0  0  0  0
   61.0219    9.2651    1.6031 C   0  0  0  0  0  0  0  0  0  0  0  0
   61.5390    9.8135    2.7105 C   0  0  0  0  0  0  0  0  0  0  0  0
   60.5541   10.1189    3.7847 C   0  0  0  0  0  0  0  0  0  0  0  0
   59.2708    9.9065    3.7384 N   0  0  0  0  0  0  0  0  0  0  0  0
   58.8030    9.3493    2.5721 C   0  0  0  0  0  0  0  0  0  0  0  0
  1  2  1  0
  2  3  1  0
  3  4  2  0
  4 15  1  0
 15 16  1  0
 16 17  2  0
 16 19  1  0
 19 20  1  0
 20 21  2  0
 21 22  1  0
 22 23  1  0
 23 24  2  0
 24 25  1  0
 25 26  2  0
 26 27  1  0
  4  5  1  0
  5  7  1  0
  7  8  2  0
  8  9  1  0
  9 10  1  0
  9 11  2  0
 11 12  1  0
 12 13  1  0
 12 14  2  0
  5  6  1  0
  6  2  2  0
 27 19  2  0
 14  7  1  0
 27 22  1  0
 15 18  1  0
M  END
> <minimizedAffinity>
-8.85380

> <CNNscore>
0.1468829811

> <CNNaffinity>
5.9983124733

> <CNN_VS>
0.8810499907

> <CNNaffinity_variance>
0.3833696842

$$$$



 27 30  0  0  0  0  0  0  0  0999 V2000
   53.7358    7.8446    2.7496 C   0  0  0  0  0  0  0  0  0  0  0  0
   54.6409    8.3706    3.7991 C   0  0  0  0  0  0  0  0  0  0  0  0
   54.2958    8.9362    5.0415 C   0  0  0  0  0  0  0  0  0  0  0  0
   55.4947    9.1575    5.6855 C   0  0  0  0  0  0  0  0  0  0  0  0
   56.4845    8.9555    4.7178 N   0  0  0  0  0  0  0  0  0  0  0  0
   55.9642    8.3034    3.6367 N   0  0  0  0  0  0  0  0  0  0  0  0
   57.8104    9.4725    4.6244 C   0  0  0  0  0  0  0  0  0  0  0  0
   58.3453   10.2895    5.6288 C   0  0  0  0  0  0  0  0  0  0  0  0
   59.6397   10.7941    5.4950 C   0  0  0  0  0  0  0  0  0  0  0  0
   60.2929   11.7906    6.7385 Cl  0  0  0  0  0  0  0  0  0  0  0  0
   60.4041   10.5136    4.3654 C   0  0  0  0  0  0  0  0  0  0  0  0
   59.8589    9.7256    3.3552 C   0  0  0  0  0  0  0  0  0  0  0  0
   60.8811    9.3520    1.8085 Br  0  0  0  0  0  0  0  0  0  0  0  0
   58.5676    9.2108    3.4709 C   0  0  0  0  0  0  0  0  0  0  0  0
   55.6384    9.5020    7.0227 N   0  0  0  0  0  0  0  0  0  0  0  0
   55.1005   10.6595    7.5641 C   0  0  0  0  0  0  0  0  0  0  0  0
   54.3754   11.4497    6.9709 O   0  0  0  0  0  0  0  0  0  0  0  0
   56.1446    8.8977    7.6126 H   0  0  0  0  0  0  0  0  0  0  0  0
   55.4960   10.9054    8.9393 C   0  0  0  0  0  0  0  0  0  0  0  0
   56.0931    9.9911    9.8309 C   0  0  0  0  0  0  0  0  0  0  0  0
   56.3439   10.5135   11.0325 N   0  0  0  0  0  0  0  0  0  0  0  0
   55.9043   11.7890   10.9416 N   0  0  0  0  0  0  0  0  0  0  0  0
   55.9334   12.7703   11.9267 C   0  0  0  0  0  0  0  0  0  0  0  0
   55.4494   13.9944   11.6782 C   0  0  0  0  0  0  0  0  0  0  0  0
   54.8989   14.1914   10.3088 C   0  0  0  0  0  0  0  0  0  0  0  0
   54.8522   13.3014    9.3603 N   0  0  0  0  0  0  0  0  0  0  0  0
   55.3717   12.0687    9.6768 C   0  0  0  0  0  0  0  0  0  0  0  0
  1  2  1  0
  2  3  1  0
  3  4  2  0
  4 15  1  0
 15 16  1  0
 16 17  2  0
 16 19  1  0
 19 20  1  0
 20 21  2  0
 21 22  1  0
 22 23  1  0
 23 24  2  0
 24 25  1  0
 25 26  2  0
 26 27  1  0
  4  5  1  0
  5  7  1  0
  7  8  2  0
  8  9  1  0
  9 10  1  0
  9 11  2  0
 11 12  1  0
 12 13  1  0
 12 14  2  0
  5  6  1  0
  6  2  2  0
 27 19  2  0
 14  7  1  0
 27 22  1  0
 15 18  1  0
M  END
> <minimizedAffinity>
-9.14986

> <CNNscore>
0.1428523064

> <CNNaffinity>
5.4472641945

> <CNN_VS>
0.7781542540

> <CNNaffinity_variance>
0.6455972791

$$$$



 27 30  0  0  0  0  0  0  0  0999 V2000
   54.1652    8.1159    2.4593 C   0  0  0  0  0  0  0  0  0  0  0  0
   55.0033    8.5631    3.5973 C   0  0  0  0  0  0  0  0  0  0  0  0
   54.5825    9.0064    4.8657 C   0  0  0  0  0  0  0  0  0  0  0  0
   55.7419    9.1929    5.5883 C   0  0  0  0  0  0  0  0  0  0  0  0
   56.7835    9.1000    4.6591 N   0  0  0  0  0  0  0  0  0  0  0  0
   56.3343    8.5381    3.4984 N   0  0  0  0  0  0  0  0  0  0  0  0
   58.0989    9.6506    4.6814 C   0  0  0  0  0  0  0  0  0  0  0  0
   58.5380   10.4434    5.7495 C   0  0  0  0  0  0  0  0  0  0  0  0
   59.8252   10.9823    5.7288 C   0  0  0  0  0  0  0  0  0  0  0  0
   60.3602   11.9488    7.0501 Cl  0  0  0  0  0  0  0  0  0  0  0  0
   60.6770   10.7599    4.6499 C   0  0  0  0  0  0  0  0  0  0  0  0
   60.2275    9.9959    3.5762 C   0  0  0  0  0  0  0  0  0  0  0  0
   61.3691    9.7014    2.0975 Br  0  0  0  0  0  0  0  0  0  0  0  0
   58.9448    9.4476    3.5788 C   0  0  0  0  0  0  0  0  0  0  0  0
   55.8100    9.4176    6.9567 N   0  0  0  0  0  0  0  0  0  0  0  0
   55.2477   10.5286    7.5662 C   0  0  0  0  0  0  0  0  0  0  0  0
   54.5619   11.3749    7.0046 O   0  0  0  0  0  0  0  0  0  0  0  0
   56.2783    8.7589    7.5189 H   0  0  0  0  0  0  0  0  0  0  0  0
   55.5645   10.6491    8.9780 C   0  0  0  0  0  0  0  0  0  0  0  0
   56.7894   11.0562    9.5449 C   0  0  0  0  0  0  0  0  0  0  0  0
   56.7745   11.0701   10.8788 N   0  0  0  0  0  0  0  0  0  0  0  0
   55.5267   10.6628   11.2041 N   0  0  0  0  0  0  0  0  0  0  0  0
   54.9893   10.5037   12.4768 C   0  0  0  0  0  0  0  0  0  0  0  0
   53.7268   10.0835   12.6317 C   0  0  0  0  0  0  0  0  0  0  0  0
   52.9905    9.8119   11.3663 C   0  0  0  0  0  0  0  0  0  0  0  0
   53.4558    9.9470   10.1582 N   0  0  0  0  0  0  0  0  0  0  0  0
   54.7544   10.3888   10.0683 C   0  0  0  0  0  0  0  0  0  0  0  0
  1  2  1  0
  2  3  1  0
  3  4  2  0
  4 15  1  0
 15 16  1  0
 16 17  2  0
 16 19  1  0
 19 20  1  0
 20 21  2  0
 21 22  1  0
 22 23  1  0
 23 24  2  0
 24 25  1  0
 25 26  2  0
 26 27  1  0
  4  5  1  0
  5  7  1  0
  7  8  2  0
  8  9  1  0
  9 10  1  0
  9 11  2  0
 11 12  1  0
 12 13  1  0
 12 14  2  0
  5  6  1  0
  6  2  2  0
 27 19  2  0
 14  7  1  0
 27 22  1  0
 15 18  1  0
M  END
> <minimizedAffinity>
-8.72993

> <CNNscore>
0.1397243291

> <CNNaffinity>
5.4241576195

> <CNN_VS>
0.7578867674

> <CNNaffinity_variance>
0.6337199807

$$$$
