


 46 50  0  0  0  0  0  0  0  0999 V2000
  -10.5009   48.6145    2.7796 C   0  0  0  0  0  0  0  0  0  0  0  0
  -11.6334   49.2017    3.3793 C   0  0  0  0  0  0  0  0  0  0  0  0
  -11.7809   49.2433    4.7664 C   0  0  0  0  0  0  0  0  0  0  0  0
  -10.8048   48.6877    5.5846 C   0  0  0  0  0  0  0  0  0  0  0  0
   -9.6770   48.0981    5.0140 C   0  0  0  0  0  0  0  0  0  0  0  0
   -9.5065   48.0682    3.6160 C   0  0  0  0  0  0  0  0  0  0  0  0
   -8.2763   47.4086    3.0750 C   0  0  0  0  0  0  0  0  0  0  0  0
   -7.3100   48.0757    2.7354 O   0  0  0  0  0  0  0  0  0  0  0  0
   -8.3605   46.0337    2.9854 N   0  0  0  0  0  0  0  0  0  0  0  0
   -9.2136   45.6189    3.2489 H   0  0  0  0  0  0  0  0  0  0  0  0
   -7.2982   45.1400    2.5351 C   0  0  0  0  0  0  0  0  0  0  0  0
   -7.7940   43.9769    1.6825 C   0  0  0  0  0  0  0  0  0  0  0  0
   -6.9372   42.9883    1.1848 C   0  0  0  0  0  0  0  0  0  0  0  0
   -7.4301   41.9355    0.4072 C   0  0  0  0  0  0  0  0  0  0  0  0
   -8.7891   41.8490    0.1032 C   0  0  0  0  0  0  0  0  0  0  0  0
   -9.6528   42.8348    0.5764 C   0  0  0  0  0  0  0  0  0  0  0  0
   -9.1588   43.8895    1.3545 C   0  0  0  0  0  0  0  0  0  0  0  0
   -9.1398   40.7677   -0.6561 O   0  0  0  0  0  0  0  0  0  0  0  0
  -10.0380   41.0020   -1.7327 C   0  0  0  0  0  0  0  0  0  0  0  0
   -6.2525   44.8163    3.5933 C   0  0  0  0  0  0  0  0  0  0  0  0
   -4.9201   45.2206    3.3966 C   0  0  0  0  0  0  0  0  0  0  0  0
   -3.9305   44.9471    4.3491 C   0  0  0  0  0  0  0  0  0  0  0  0
   -4.2555   44.2690    5.5225 C   0  0  0  0  0  0  0  0  0  0  0  0
   -5.5756   43.8690    5.7313 C   0  0  0  0  0  0  0  0  0  0  0  0
   -6.5661   44.1447    4.7834 C   0  0  0  0  0  0  0  0  0  0  0  0
   -3.3898   43.9402    6.5292 O   0  0  0  0  0  0  0  0  0  0  0  0
   -3.9613   43.3957    7.7115 C   0  0  0  0  0  0  0  0  0  0  0  0
  -10.4163   48.5980    1.2655 C   0  0  0  0  0  0  0  0  0  0  0  0
  -10.2245   47.2680    0.6969 N   0  0  0  0  0  0  0  0  0  0  0  0
   -9.5259   47.1861   -0.5777 C   0  0  0  0  0  0  0  0  0  0  0  0
   -7.1195   47.8424   -0.9088 C   0  0  0  0  0  0  0  0  0  0  0  0
   -8.0419   46.9533   -0.5147 C   0  0  0  0  0  0  0  0  0  0  0  0
  -11.3414   46.3427    0.9013 C   0  0  0  0  0  0  0  0  0  0  0  0
  -12.1483   45.9422   -0.3173 C   0  0  0  0  0  0  0  0  0  0  0  0
  -11.4620   45.5461   -1.4940 C   0  0  0  0  0  0  0  0  0  0  0  0
  -12.1504   45.1594   -2.6479 C   0  0  0  0  0  0  0  0  0  0  0  0
  -13.5264   45.1891   -2.6154 C   0  0  0  0  0  0  0  0  0  0  0  0
  -14.2215   45.5814   -1.4954 C   0  0  0  0  0  0  0  0  0  0  0  0
  -13.5610   45.9590   -0.3354 C   0  0  0  0  0  0  0  0  0  0  0  0
  -15.5684   45.5628   -1.7070 O   0  0  0  0  0  0  0  0  0  0  0  0
  -15.6352   45.1152   -3.0740 C   0  0  0  0  0  0  0  0  0  0  0  0
  -14.3421   44.8608   -3.6539 O   0  0  0  0  0  0  0  0  0  0  0  0
  -14.3525   46.3963    0.8242 C   0  0  0  0  0  0  0  0  0  0  0  0
  -14.7309   45.7010    1.7464 O   0  0  0  0  0  0  0  0  0  0  0  0
  -14.6816   47.6960    0.7214 O   0  0  0  0  0  0  0  0  0  0  0  0
  -14.3716   48.2019   -0.0038 H   0  0  0  0  0  0  0  0  0  0  0  0
 31 32  2  0
 32 30  1  0
 30 29  1  0
 29 28  1  0
 28  1  1  0
  1  2  2  0
  2  3  1  0
  3  4  2  0
  4  5  1  0
  5  6  2  0
  6  7  1  0
  7  8  2  0
  7  9  1  0
  9 11  1  0
 11 12  1  0
 12 13  2  0
 13 14  1  0
 14 15  2  0
 15 18  1  0
 18 19  1  0
 15 16  1  0
 16 17  2  0
 11 20  1  0
 20 21  2  0
 21 22  1  0
 22 23  2  0
 23 26  1  0
 26 27  1  0
 23 24  1  0
 24 25  2  0
 29 33  1  0
 33 34  1  0
 34 35  2  0
 35 36  1  0
 36 37  2  0
 37 38  1  0
 38 39  2  0
 39 43  1  0
 43 44  2  0
 43 45  1  0
 38 40  1  0
 40 41  1  0
 41 42  1  0
  6  1  1  0
 17 12  1  0
 25 20  1  0
 39 34  1  0
 42 37  1  0
  9 10  1  0
 45 46  1  0
M  END
> <minimizedAffinity>
-8.57291

> <CNNscore>
0.9045216441

> <CNNaffinity>
6.4334712029

> <CNN_VS>
5.8192138672

> <CNNaffinity_variance>
0.9669947028

$$$$



 46 50  0  0  0  0  0  0  0  0999 V2000
   -8.7767   43.5229   -0.0794 C   0  0  0  0  0  0  0  0  0  0  0  0
   -9.6626   42.6369   -0.7255 C   0  0  0  0  0  0  0  0  0  0  0  0
   -9.5830   41.2578   -0.5271 C   0  0  0  0  0  0  0  0  0  0  0  0
   -8.6081   40.7330    0.3124 C   0  0  0  0  0  0  0  0  0  0  0  0
   -7.7181   41.5897    0.9600 C   0  0  0  0  0  0  0  0  0  0  0  0
   -7.8013   42.9849    0.7843 C   0  0  0  0  0  0  0  0  0  0  0  0
   -6.8053   43.8413    1.5025 C   0  0  0  0  0  0  0  0  0  0  0  0
   -5.6085   43.7199    1.2858 O   0  0  0  0  0  0  0  0  0  0  0  0
   -7.3609   44.7224    2.4082 N   0  0  0  0  0  0  0  0  0  0  0  0
   -8.3381   44.6897    2.5236 H   0  0  0  0  0  0  0  0  0  0  0  0
   -6.6295   45.6982    3.2101 C   0  0  0  0  0  0  0  0  0  0  0  0
   -5.6546   46.5493    2.4035 C   0  0  0  0  0  0  0  0  0  0  0  0
   -4.2830   46.5901    2.6796 C   0  0  0  0  0  0  0  0  0  0  0  0
   -3.4198   47.3822    1.9158 C   0  0  0  0  0  0  0  0  0  0  0  0
   -3.9072   48.1570    0.8627 C   0  0  0  0  0  0  0  0  0  0  0  0
   -5.2728   48.1411    0.5859 C   0  0  0  0  0  0  0  0  0  0  0  0
   -6.1372   47.3482    1.3515 C   0  0  0  0  0  0  0  0  0  0  0  0
   -2.9579   48.8767    0.1921 O   0  0  0  0  0  0  0  0  0  0  0  0
   -2.6151   50.1471    0.7299 C   0  0  0  0  0  0  0  0  0  0  0  0
   -6.1327   45.1716    4.5495 C   0  0  0  0  0  0  0  0  0  0  0  0
   -5.3637   43.9950    4.5889 C   0  0  0  0  0  0  0  0  0  0  0  0
   -4.8834   43.4820    5.8003 C   0  0  0  0  0  0  0  0  0  0  0  0
   -5.1568   44.1405    6.9978 C   0  0  0  0  0  0  0  0  0  0  0  0
   -5.9132   45.3124    6.9700 C   0  0  0  0  0  0  0  0  0  0  0  0
   -6.3903   45.8287    5.7610 C   0  0  0  0  0  0  0  0  0  0  0  0
   -4.7500   43.7490    8.2436 O   0  0  0  0  0  0  0  0  0  0  0  0
   -4.0499   42.5146    8.3289 C   0  0  0  0  0  0  0  0  0  0  0  0
   -8.9185   45.0079   -0.3528 C   0  0  0  0  0  0  0  0  0  0  0  0
   -9.9792   45.6531    0.4139 N   0  0  0  0  0  0  0  0  0  0  0  0
   -9.5785   46.4216    1.5836 C   0  0  0  0  0  0  0  0  0  0  0  0
  -10.4964   47.8907    3.4085 C   0  0  0  0  0  0  0  0  0  0  0  0
  -10.6501   47.2425    2.2454 C   0  0  0  0  0  0  0  0  0  0  0  0
  -11.2200   44.8820    0.5205 C   0  0  0  0  0  0  0  0  0  0  0  0
  -12.2100   44.9908   -0.6217 C   0  0  0  0  0  0  0  0  0  0  0  0
  -11.8181   44.5521   -1.9126 C   0  0  0  0  0  0  0  0  0  0  0  0
  -12.6886   44.6206   -3.0046 C   0  0  0  0  0  0  0  0  0  0  0  0
  -13.9437   45.1454   -2.7937 C   0  0  0  0  0  0  0  0  0  0  0  0
  -14.3496   45.5922   -1.5579 C   0  0  0  0  0  0  0  0  0  0  0  0
  -13.5077   45.5246   -0.4573 C   0  0  0  0  0  0  0  0  0  0  0  0
  -15.6151   46.0984   -1.5967 O   0  0  0  0  0  0  0  0  0  0  0  0
  -15.9519   45.9158   -2.9847 C   0  0  0  0  0  0  0  0  0  0  0  0
  -14.9006   45.2967   -3.7493 O   0  0  0  0  0  0  0  0  0  0  0  0
  -13.9824   46.0421    0.8347 C   0  0  0  0  0  0  0  0  0  0  0  0
  -13.4344   46.8787    1.5252 O   0  0  0  0  0  0  0  0  0  0  0  0
  -15.1095   45.4179    1.2198 O   0  0  0  0  0  0  0  0  0  0  0  0
  -15.5048   44.7777    0.6613 H   0  0  0  0  0  0  0  0  0  0  0  0
 31 32  2  0
 32 30  1  0
 30 29  1  0
 29 28  1  0
 28  1  1  0
  1  2  2  0
  2  3  1  0
  3  4  2  0
  4  5  1  0
  5  6  2  0
  6  7  1  0
  7  8  2  0
  7  9  1  0
  9 11  1  0
 11 12  1  0
 12 13  2  0
 13 14  1  0
 14 15  2  0
 15 18  1  0
 18 19  1  0
 15 16  1  0
 16 17  2  0
 11 20  1  0
 20 21  2  0
 21 22  1  0
 22 23  2  0
 23 26  1  0
 26 27  1  0
 23 24  1  0
 24 25  2  0
 29 33  1  0
 33 34  1  0
 34 35  2  0
 35 36  1  0
 36 37  2  0
 37 38  1  0
 38 39  2  0
 39 43  1  0
 43 44  2  0
 43 45  1  0
 38 40  1  0
 40 41  1  0
 41 42  1  0
  6  1  1  0
 17 12  1  0
 25 20  1  0
 39 34  1  0
 42 37  1  0
  9 10  1  0
 45 46  1  0
M  END
> <minimizedAffinity>
-8.39396

> <CNNscore>
0.7670438886

> <CNNaffinity>
6.3354239464

> <CNN_VS>
4.8595480919

> <CNNaffinity_variance>
0.8722446561

$$$$



 46 50  0  0  0  0  0  0  0  0999 V2000
   -8.6754   48.8670    0.0201 C   0  0  0  0  0  0  0  0  0  0  0  0
   -8.7901   50.2605   -0.1591 C   0  0  0  0  0  0  0  0  0  0  0  0
   -7.8747   51.1439    0.4147 C   0  0  0  0  0  0  0  0  0  0  0  0
   -6.8310   50.6542    1.1904 C   0  0  0  0  0  0  0  0  0  0  0  0
   -6.6990   49.2794    1.3847 C   0  0  0  0  0  0  0  0  0  0  0  0
   -7.6044   48.3762    0.7939 C   0  0  0  0  0  0  0  0  0  0  0  0
   -7.4068   46.9155    1.0558 C   0  0  0  0  0  0  0  0  0  0  0  0
   -6.9654   46.1807    0.1844 O   0  0  0  0  0  0  0  0  0  0  0  0
   -7.7822   46.5082    2.3201 N   0  0  0  0  0  0  0  0  0  0  0  0
   -8.1679   47.1914    2.9149 H   0  0  0  0  0  0  0  0  0  0  0  0
   -7.6587   45.1556    2.8541 C   0  0  0  0  0  0  0  0  0  0  0  0
   -6.3784   44.9234    3.6492 C   0  0  0  0  0  0  0  0  0  0  0  0
   -5.1284   45.3796    3.2151 C   0  0  0  0  0  0  0  0  0  0  0  0
   -3.9762   45.1484    3.9734 C   0  0  0  0  0  0  0  0  0  0  0  0
   -4.0446   44.4506    5.1797 C   0  0  0  0  0  0  0  0  0  0  0  0
   -5.2788   43.9744    5.6174 C   0  0  0  0  0  0  0  0  0  0  0  0
   -6.4324   44.2054    4.8574 C   0  0  0  0  0  0  0  0  0  0  0  0
   -2.8489   44.3016    5.8253 O   0  0  0  0  0  0  0  0  0  0  0  0
   -1.6943   44.8024    5.1644 C   0  0  0  0  0  0  0  0  0  0  0  0
   -8.0748   44.0538    1.8891 C   0  0  0  0  0  0  0  0  0  0  0  0
   -9.4099   43.9829    1.4533 C   0  0  0  0  0  0  0  0  0  0  0  0
   -9.8303   42.9882    0.5615 C   0  0  0  0  0  0  0  0  0  0  0  0
   -8.9210   42.0474    0.0814 C   0  0  0  0  0  0  0  0  0  0  0  0
   -7.5924   42.1123    0.5019 C   0  0  0  0  0  0  0  0  0  0  0  0
   -7.1695   43.1073    1.3890 C   0  0  0  0  0  0  0  0  0  0  0  0
   -9.1988   41.0295   -0.7889 O   0  0  0  0  0  0  0  0  0  0  0  0
  -10.2224   41.2683   -1.7461 C   0  0  0  0  0  0  0  0  0  0  0  0
   -9.7145   47.9712   -0.6262 C   0  0  0  0  0  0  0  0  0  0  0  0
  -10.9193   47.7865    0.1760 N   0  0  0  0  0  0  0  0  0  0  0  0
  -11.0777   48.6440    1.3418 C   0  0  0  0  0  0  0  0  0  0  0  0
  -10.4414   48.2151    3.7381 C   0  0  0  0  0  0  0  0  0  0  0  0
  -11.2074   47.9518    2.6701 C   0  0  0  0  0  0  0  0  0  0  0  0
  -11.3649   46.3975    0.3093 C   0  0  0  0  0  0  0  0  0  0  0  0
  -12.3306   45.8710   -0.7331 C   0  0  0  0  0  0  0  0  0  0  0  0
  -11.8105   45.3001   -1.9231 C   0  0  0  0  0  0  0  0  0  0  0  0
  -12.6501   44.7913   -2.9186 C   0  0  0  0  0  0  0  0  0  0  0  0
  -14.0094   44.8748   -2.7172 C   0  0  0  0  0  0  0  0  0  0  0  0
  -14.5456   45.4347   -1.5813 C   0  0  0  0  0  0  0  0  0  0  0  0
  -13.7331   45.9364   -0.5749 C   0  0  0  0  0  0  0  0  0  0  0  0
  -15.9088   45.4374   -1.6170 O   0  0  0  0  0  0  0  0  0  0  0  0
  -16.1609   44.8179   -2.8922 C   0  0  0  0  0  0  0  0  0  0  0  0
  -14.9591   44.4435   -3.5911 O   0  0  0  0  0  0  0  0  0  0  0  0
  -14.3590   46.5495    0.6060 C   0  0  0  0  0  0  0  0  0  0  0  0
  -14.4624   47.7385    0.8356 O   0  0  0  0  0  0  0  0  0  0  0  0
  -14.7704   45.6106    1.4763 O   0  0  0  0  0  0  0  0  0  0  0  0
  -14.6749   44.7026    1.2658 H   0  0  0  0  0  0  0  0  0  0  0  0
 31 32  2  0
 32 30  1  0
 30 29  1  0
 29 28  1  0
 28  1  1  0
  1  2  2  0
  2  3  1  0
  3  4  2  0
  4  5  1  0
  5  6  2  0
  6  7  1  0
  7  8  2  0
  7  9  1  0
  9 11  1  0
 11 12  1  0
 12 13  2  0
 13 14  1  0
 14 15  2  0
 15 18  1  0
 18 19  1  0
 15 16  1  0
 16 17  2  0
 11 20  1  0
 20 21  2  0
 21 22  1  0
 22 23  2  0
 23 26  1  0
 26 27  1  0
 23 24  1  0
 24 25  2  0
 29 33  1  0
 33 34  1  0
 34 35  2  0
 35 36  1  0
 36 37  2  0
 37 38  1  0
 38 39  2  0
 39 43  1  0
 43 44  2  0
 43 45  1  0
 38 40  1  0
 40 41  1  0
 41 42  1  0
  6  1  1  0
 17 12  1  0
 25 20  1  0
 39 34  1  0
 42 37  1  0
  9 10  1  0
 45 46  1  0
M  END
> <minimizedAffinity>
-7.87980

> <CNNscore>
0.7363592982

> <CNNaffinity>
6.1148657799

> <CNN_VS>
4.5027384758

> <CNNaffinity_variance>
1.0290232897

$$$$



 46 50  0  0  0  0  0  0  0  0999 V2000
  -10.4977   50.4182   -0.0356 C   0  0  0  0  0  0  0  0  0  0  0  0
  -11.0343   51.2096   -1.0713 C   0  0  0  0  0  0  0  0  0  0  0  0
  -10.2808   51.5372   -2.1994 C   0  0  0  0  0  0  0  0  0  0  0  0
   -8.9697   51.0907   -2.3112 C   0  0  0  0  0  0  0  0  0  0  0  0
   -8.4159   50.3091   -1.2975 C   0  0  0  0  0  0  0  0  0  0  0  0
   -9.1728   49.9544   -0.1636 C   0  0  0  0  0  0  0  0  0  0  0  0
   -8.5085   49.1227    0.8891 C   0  0  0  0  0  0  0  0  0  0  0  0
   -8.2126   49.6078    1.9713 O   0  0  0  0  0  0  0  0  0  0  0  0
   -8.2593   47.8188    0.5108 N   0  0  0  0  0  0  0  0  0  0  0  0
   -8.5052   47.5639   -0.4078 H   0  0  0  0  0  0  0  0  0  0  0  0
   -7.6637   46.7843    1.3505 C   0  0  0  0  0  0  0  0  0  0  0  0
   -6.1636   46.9548    1.5647 C   0  0  0  0  0  0  0  0  0  0  0  0
   -5.4805   46.3518    2.6271 C   0  0  0  0  0  0  0  0  0  0  0  0
   -4.1030   46.5306    2.7894 C   0  0  0  0  0  0  0  0  0  0  0  0
   -3.3767   47.3211    1.8981 C   0  0  0  0  0  0  0  0  0  0  0  0
   -4.0447   47.9428    0.8451 C   0  0  0  0  0  0  0  0  0  0  0  0
   -5.4245   47.7641    0.6832 C   0  0  0  0  0  0  0  0  0  0  0  0
   -2.0385   47.4057    2.1648 O   0  0  0  0  0  0  0  0  0  0  0  0
   -1.1989   47.8504    1.1075 C   0  0  0  0  0  0  0  0  0  0  0  0
   -8.1583   45.3733    1.0629 C   0  0  0  0  0  0  0  0  0  0  0  0
   -7.3965   44.5274    0.2374 C   0  0  0  0  0  0  0  0  0  0  0  0
   -7.8144   43.2211   -0.0461 C   0  0  0  0  0  0  0  0  0  0  0  0
   -9.0009   42.7315    0.4971 C   0  0  0  0  0  0  0  0  0  0  0  0
   -9.7613   43.5597    1.3229 C   0  0  0  0  0  0  0  0  0  0  0  0
   -9.3437   44.8630    1.6106 C   0  0  0  0  0  0  0  0  0  0  0  0
   -9.5208   41.4815    0.3017 O   0  0  0  0  0  0  0  0  0  0  0  0
   -8.5899   40.4264    0.0987 C   0  0  0  0  0  0  0  0  0  0  0  0
  -11.3744   50.1128    1.1636 C   0  0  0  0  0  0  0  0  0  0  0  0
  -12.1014   48.8519    1.0606 N   0  0  0  0  0  0  0  0  0  0  0  0
  -11.6744   47.7670    1.9324 C   0  0  0  0  0  0  0  0  0  0  0  0
  -10.1314   47.7786    3.9198 C   0  0  0  0  0  0  0  0  0  0  0  0
  -11.2776   48.1483    3.3315 C   0  0  0  0  0  0  0  0  0  0  0  0
  -12.5160   48.4879   -0.2963 C   0  0  0  0  0  0  0  0  0  0  0  0
  -12.1274   47.1124   -0.7998 C   0  0  0  0  0  0  0  0  0  0  0  0
  -10.8168   46.9122   -1.3046 C   0  0  0  0  0  0  0  0  0  0  0  0
  -10.3969   45.6651   -1.7770 C   0  0  0  0  0  0  0  0  0  0  0  0
  -11.3046   44.6302   -1.7533 C   0  0  0  0  0  0  0  0  0  0  0  0
  -12.5865   44.7948   -1.2834 C   0  0  0  0  0  0  0  0  0  0  0  0
  -13.0229   46.0196   -0.7996 C   0  0  0  0  0  0  0  0  0  0  0  0
  -13.3120   43.6449   -1.3876 O   0  0  0  0  0  0  0  0  0  0  0  0
  -12.3446   42.7502   -1.9682 C   0  0  0  0  0  0  0  0  0  0  0  0
  -11.0615   43.3645   -2.1897 O   0  0  0  0  0  0  0  0  0  0  0  0
  -14.4122   46.1473   -0.3350 C   0  0  0  0  0  0  0  0  0  0  0  0
  -14.8009   46.0760    0.8143 O   0  0  0  0  0  0  0  0  0  0  0  0
  -15.2557   46.2976   -1.3714 O   0  0  0  0  0  0  0  0  0  0  0  0
  -14.9204   46.3489   -2.2448 H   0  0  0  0  0  0  0  0  0  0  0  0
 31 32  2  0
 32 30  1  0
 30 29  1  0
 29 28  1  0
 28  1  1  0
  1  2  2  0
  2  3  1  0
  3  4  2  0
  4  5  1  0
  5  6  2  0
  6  7  1  0
  7  8  2  0
  7  9  1  0
  9 11  1  0
 11 12  1  0
 12 13  2  0
 13 14  1  0
 14 15  2  0
 15 18  1  0
 18 19  1  0
 15 16  1  0
 16 17  2  0
 11 20  1  0
 20 21  2  0
 21 22  1  0
 22 23  2  0
 23 26  1  0
 26 27  1  0
 23 24  1  0
 24 25  2  0
 29 33  1  0
 33 34  1  0
 34 35  2  0
 35 36  1  0
 36 37  2  0
 37 38  1  0
 38 39  2  0
 39 43  1  0
 43 44  2  0
 43 45  1  0
 38 40  1  0
 40 41  1  0
 41 42  1  0
  6  1  1  0
 17 12  1  0
 25 20  1  0
 39 34  1  0
 42 37  1  0
  9 10  1  0
 45 46  1  0
M  END
> <minimizedAffinity>
-6.78280

> <CNNscore>
0.7013940811

> <CNNaffinity>
5.8979382515

> <CNN_VS>
4.1367788315

> <CNNaffinity_variance>
1.1278395653

$$$$



 46 50  0  0  0  0  0  0  0  0999 V2000
   -9.4134   48.8229   -0.0243 C   0  0  0  0  0  0  0  0  0  0  0  0
  -10.0987   50.0490    0.0939 C   0  0  0  0  0  0  0  0  0  0  0  0
   -9.4159   51.2417    0.3368 C   0  0  0  0  0  0  0  0  0  0  0  0
   -8.0337   51.2330    0.4789 C   0  0  0  0  0  0  0  0  0  0  0  0
   -7.3343   50.0313    0.3694 C   0  0  0  0  0  0  0  0  0  0  0  0
   -8.0097   48.8239    0.1038 C   0  0  0  0  0  0  0  0  0  0  0  0
   -7.1945   47.5718    0.0108 C   0  0  0  0  0  0  0  0  0  0  0  0
   -6.4370   47.3903   -0.9312 O   0  0  0  0  0  0  0  0  0  0  0  0
   -7.4014   46.6802    1.0441 N   0  0  0  0  0  0  0  0  0  0  0  0
   -8.0746   46.9251    1.7194 H   0  0  0  0  0  0  0  0  0  0  0  0
   -6.7116   45.4068    1.2250 C   0  0  0  0  0  0  0  0  0  0  0  0
   -7.4339   44.2215    0.5936 C   0  0  0  0  0  0  0  0  0  0  0  0
   -8.2460   44.3502   -0.5391 C   0  0  0  0  0  0  0  0  0  0  0  0
   -8.8911   43.2385   -1.0905 C   0  0  0  0  0  0  0  0  0  0  0  0
   -8.7454   41.9737   -0.5198 C   0  0  0  0  0  0  0  0  0  0  0  0
   -7.9543   41.8315    0.6184 C   0  0  0  0  0  0  0  0  0  0  0  0
   -7.3089   42.9451    1.1710 C   0  0  0  0  0  0  0  0  0  0  0  0
   -9.4210   40.9731   -1.1612 O   0  0  0  0  0  0  0  0  0  0  0  0
  -10.6686   41.3147   -1.7507 C   0  0  0  0  0  0  0  0  0  0  0  0
   -6.1321   45.1932    2.6167 C   0  0  0  0  0  0  0  0  0  0  0  0
   -4.7766   44.8460    2.7566 C   0  0  0  0  0  0  0  0  0  0  0  0
   -4.2050   44.6469    4.0195 C   0  0  0  0  0  0  0  0  0  0  0  0
   -4.9770   44.7982    5.1699 C   0  0  0  0  0  0  0  0  0  0  0  0
   -6.3213   45.1490    5.0434 C   0  0  0  0  0  0  0  0  0  0  0  0
   -6.8931   45.3524    3.7835 C   0  0  0  0  0  0  0  0  0  0  0  0
   -4.5450   44.6341    6.4574 O   0  0  0  0  0  0  0  0  0  0  0  0
   -4.1228   45.8050    7.1442 C   0  0  0  0  0  0  0  0  0  0  0  0
  -10.2252   47.5673   -0.2783 C   0  0  0  0  0  0  0  0  0  0  0  0
  -10.9136   47.0575    0.9029 N   0  0  0  0  0  0  0  0  0  0  0  0
  -10.3187   47.3560    2.1976 C   0  0  0  0  0  0  0  0  0  0  0  0
  -12.1087   49.0161    2.8066 C   0  0  0  0  0  0  0  0  0  0  0  0
  -11.1727   48.1265    3.1658 C   0  0  0  0  0  0  0  0  0  0  0  0
  -11.5188   45.7334    0.7409 C   0  0  0  0  0  0  0  0  0  0  0  0
  -12.4013   45.5126   -0.4710 C   0  0  0  0  0  0  0  0  0  0  0  0
  -11.8298   44.9521   -1.6423 C   0  0  0  0  0  0  0  0  0  0  0  0
  -12.5937   44.7183   -2.7897 C   0  0  0  0  0  0  0  0  0  0  0  0
  -13.9255   45.0652   -2.7567 C   0  0  0  0  0  0  0  0  0  0  0  0
  -14.5067   45.6232   -1.6421 C   0  0  0  0  0  0  0  0  0  0  0  0
  -13.7720   45.8547   -0.4883 C   0  0  0  0  0  0  0  0  0  0  0  0
  -15.8224   45.9128   -1.8524 O   0  0  0  0  0  0  0  0  0  0  0  0
  -15.9963   45.4733   -3.2126 C   0  0  0  0  0  0  0  0  0  0  0  0
  -14.7992   44.9192   -3.7896 O   0  0  0  0  0  0  0  0  0  0  0  0
  -14.4365   46.4792    0.6653 C   0  0  0  0  0  0  0  0  0  0  0  0
  -14.5958   47.6695    0.8523 O   0  0  0  0  0  0  0  0  0  0  0  0
  -14.8137   45.5533    1.5645 O   0  0  0  0  0  0  0  0  0  0  0  0
  -14.6753   44.6438    1.3867 H   0  0  0  0  0  0  0  0  0  0  0  0
 31 32  2  0
 32 30  1  0
 30 29  1  0
 29 28  1  0
 28  1  1  0
  1  2  2  0
  2  3  1  0
  3  4  2  0
  4  5  1  0
  5  6  2  0
  6  7  1  0
  7  8  2  0
  7  9  1  0
  9 11  1  0
 11 12  1  0
 12 13  2  0
 13 14  1  0
 14 15  2  0
 15 18  1  0
 18 19  1  0
 15 16  1  0
 16 17  2  0
 11 20  1  0
 20 21  2  0
 21 22  1  0
 22 23  2  0
 23 26  1  0
 26 27  1  0
 23 24  1  0
 24 25  2  0
 29 33  1  0
 33 34  1  0
 34 35  2  0
 35 36  1  0
 36 37  2  0
 37 38  1  0
 38 39  2  0
 39 43  1  0
 43 44  2  0
 43 45  1  0
 38 40  1  0
 40 41  1  0
 41 42  1  0
  6  1  1  0
 17 12  1  0
 25 20  1  0
 39 34  1  0
 42 37  1  0
  9 10  1  0
 45 46  1  0
M  END
> <minimizedAffinity>
-8.14838

> <CNNscore>
0.6309483647

> <CNNaffinity>
6.1148476601

> <CNN_VS>
3.8581531048

> <CNNaffinity_variance>
0.7982071042

$$$$



 46 50  0  0  0  0  0  0  0  0999 V2000
   -8.8489   43.6371    0.6139 C   0  0  0  0  0  0  0  0  0  0  0  0
   -9.8352   43.1048   -0.2411 C   0  0  0  0  0  0  0  0  0  0  0  0
   -9.7987   41.7709   -0.6497 C   0  0  0  0  0  0  0  0  0  0  0  0
   -8.7683   40.9426   -0.2220 C   0  0  0  0  0  0  0  0  0  0  0  0
   -7.7791   41.4477    0.6216 C   0  0  0  0  0  0  0  0  0  0  0  0
   -7.8161   42.7867    1.0577 C   0  0  0  0  0  0  0  0  0  0  0  0
   -6.7144   43.2618    1.9531 C   0  0  0  0  0  0  0  0  0  0  0  0
   -5.6647   42.6405    2.0325 O   0  0  0  0  0  0  0  0  0  0  0  0
   -7.0112   44.4092    2.6607 N   0  0  0  0  0  0  0  0  0  0  0  0
   -7.9119   44.7886    2.5420 H   0  0  0  0  0  0  0  0  0  0  0  0
   -6.1094   45.1104    3.5690 C   0  0  0  0  0  0  0  0  0  0  0  0
   -6.8119   46.1077    4.4839 C   0  0  0  0  0  0  0  0  0  0  0  0
   -6.5433   46.1917    5.8550 C   0  0  0  0  0  0  0  0  0  0  0  0
   -7.2075   47.1212    6.6616 C   0  0  0  0  0  0  0  0  0  0  0  0
   -8.1602   47.9842    6.1190 C   0  0  0  0  0  0  0  0  0  0  0  0
   -8.4520   47.9016    4.7590 C   0  0  0  0  0  0  0  0  0  0  0  0
   -7.7872   46.9700    3.9515 C   0  0  0  0  0  0  0  0  0  0  0  0
   -8.7275   48.8485    7.0134 O   0  0  0  0  0  0  0  0  0  0  0  0
   -8.0942   48.9705    8.2802 C   0  0  0  0  0  0  0  0  0  0  0  0
   -4.8016   45.5655    2.9360 C   0  0  0  0  0  0  0  0  0  0  0  0
   -4.7710   46.7572    2.1902 C   0  0  0  0  0  0  0  0  0  0  0  0
   -3.5866   47.2124    1.5975 C   0  0  0  0  0  0  0  0  0  0  0  0
   -2.4055   46.4875    1.7452 C   0  0  0  0  0  0  0  0  0  0  0  0
   -2.4225   45.3071    2.4886 C   0  0  0  0  0  0  0  0  0  0  0  0
   -3.6032   44.8530    3.0848 C   0  0  0  0  0  0  0  0  0  0  0  0
   -1.1861   46.8186    1.2213 O   0  0  0  0  0  0  0  0  0  0  0  0
   -0.9331   48.2024    1.0158 C   0  0  0  0  0  0  0  0  0  0  0  0
   -8.9502   45.0985    1.0062 C   0  0  0  0  0  0  0  0  0  0  0  0
   -9.6331   45.9307    0.0212 N   0  0  0  0  0  0  0  0  0  0  0  0
   -8.8461   46.9669   -0.6315 C   0  0  0  0  0  0  0  0  0  0  0  0
   -6.4830   47.7759   -0.9358 C   0  0  0  0  0  0  0  0  0  0  0  0
   -7.3518   46.8442   -0.5190 C   0  0  0  0  0  0  0  0  0  0  0  0
  -11.0220   46.2610    0.3493 C   0  0  0  0  0  0  0  0  0  0  0  0
  -12.0939   45.8199   -0.6269 C   0  0  0  0  0  0  0  0  0  0  0  0
  -11.7037   45.3521   -1.9081 C   0  0  0  0  0  0  0  0  0  0  0  0
  -12.6452   44.9253   -2.8495 C   0  0  0  0  0  0  0  0  0  0  0  0
  -13.9757   44.9870   -2.5011 C   0  0  0  0  0  0  0  0  0  0  0  0
  -14.3875   45.4484   -1.2728 C   0  0  0  0  0  0  0  0  0  0  0  0
  -13.4718   45.8671   -0.3184 C   0  0  0  0  0  0  0  0  0  0  0  0
  -15.7469   45.4493   -1.1657 O   0  0  0  0  0  0  0  0  0  0  0  0
  -16.1339   44.9376   -2.4548 C   0  0  0  0  0  0  0  0  0  0  0  0
  -15.0136   44.6269   -3.3041 O   0  0  0  0  0  0  0  0  0  0  0  0
  -13.9679   46.3774    0.9684 C   0  0  0  0  0  0  0  0  0  0  0  0
  -13.6421   47.4156    1.5098 O   0  0  0  0  0  0  0  0  0  0  0  0
  -14.8150   45.5034    1.5399 O   0  0  0  0  0  0  0  0  0  0  0  0
  -15.0441   44.7123    1.0930 H   0  0  0  0  0  0  0  0  0  0  0  0
 31 32  2  0
 32 30  1  0
 30 29  1  0
 29 28  1  0
 28  1  1  0
  1  2  2  0
  2  3  1  0
  3  4  2  0
  4  5  1  0
  5  6  2  0
  6  7  1  0
  7  8  2  0
  7  9  1  0
  9 11  1  0
 11 12  1  0
 12 13  2  0
 13 14  1  0
 14 15  2  0
 15 18  1  0
 18 19  1  0
 15 16  1  0
 16 17  2  0
 11 20  1  0
 20 21  2  0
 21 22  1  0
 22 23  2  0
 23 26  1  0
 26 27  1  0
 23 24  1  0
 24 25  2  0
 29 33  1  0
 33 34  1  0
 34 35  2  0
 35 36  1  0
 36 37  2  0
 37 38  1  0
 38 39  2  0
 39 43  1  0
 43 44  2  0
 43 45  1  0
 38 40  1  0
 40 41  1  0
 41 42  1  0
  6  1  1  0
 17 12  1  0
 25 20  1  0
 39 34  1  0
 42 37  1  0
  9 10  1  0
 45 46  1  0
M  END
> <minimizedAffinity>
-8.54486

> <CNNscore>
0.5790068507

> <CNNaffinity>
6.0855803490

> <CNN_VS>
3.5235927105

> <CNNaffinity_variance>
1.2019511461

$$$$



 46 50  0  0  0  0  0  0  0  0999 V2000
   -8.6915   44.1838    1.2195 C   0  0  0  0  0  0  0  0  0  0  0  0
   -9.4617   43.2005    0.5661 C   0  0  0  0  0  0  0  0  0  0  0  0
   -8.9177   41.9621    0.2225 C   0  0  0  0  0  0  0  0  0  0  0  0
   -7.5879   41.6839    0.5139 C   0  0  0  0  0  0  0  0  0  0  0  0
   -6.8051   42.6426    1.1569 C   0  0  0  0  0  0  0  0  0  0  0  0
   -7.3482   43.8885    1.5275 C   0  0  0  0  0  0  0  0  0  0  0  0
   -6.4451   44.8721    2.2044 C   0  0  0  0  0  0  0  0  0  0  0  0
   -6.8299   46.0067    2.4464 O   0  0  0  0  0  0  0  0  0  0  0  0
   -5.1851   44.3854    2.4889 N   0  0  0  0  0  0  0  0  0  0  0  0
   -4.9841   43.4659    2.2001 H   0  0  0  0  0  0  0  0  0  0  0  0
   -4.1242   45.1118    3.1794 C   0  0  0  0  0  0  0  0  0  0  0  0
   -2.9151   45.4153    2.3011 C   0  0  0  0  0  0  0  0  0  0  0  0
   -2.0282   44.4220    1.8702 C   0  0  0  0  0  0  0  0  0  0  0  0
   -0.9307   44.7396    1.0636 C   0  0  0  0  0  0  0  0  0  0  0  0
   -0.6897   46.0575    0.6740 C   0  0  0  0  0  0  0  0  0  0  0  0
   -1.5533   47.0608    1.1090 C   0  0  0  0  0  0  0  0  0  0  0  0
   -2.6520   46.7426    1.9174 C   0  0  0  0  0  0  0  0  0  0  0  0
    0.4096   46.2295   -0.1203 O   0  0  0  0  0  0  0  0  0  0  0  0
    0.4360   45.5108   -1.3464 C   0  0  0  0  0  0  0  0  0  0  0  0
   -3.8384   44.6226    4.5926 C   0  0  0  0  0  0  0  0  0  0  0  0
   -2.6410   44.9988    5.2267 C   0  0  0  0  0  0  0  0  0  0  0  0
   -2.3445   44.5744    6.5280 C   0  0  0  0  0  0  0  0  0  0  0  0
   -3.2442   43.7699    7.2249 C   0  0  0  0  0  0  0  0  0  0  0  0
   -4.4383   43.3961    6.6082 C   0  0  0  0  0  0  0  0  0  0  0  0
   -4.7384   43.8222    5.3104 C   0  0  0  0  0  0  0  0  0  0  0  0
   -3.0783   43.2886    8.4945 O   0  0  0  0  0  0  0  0  0  0  0  0
   -4.2395   42.7905    9.1461 C   0  0  0  0  0  0  0  0  0  0  0  0
   -9.3497   45.5092    1.5515 C   0  0  0  0  0  0  0  0  0  0  0  0
  -10.3678   45.9224    0.5914 N   0  0  0  0  0  0  0  0  0  0  0  0
  -10.4380   47.3401    0.2680 C   0  0  0  0  0  0  0  0  0  0  0  0
   -9.3981   49.0269   -1.2825 C   0  0  0  0  0  0  0  0  0  0  0  0
   -9.7739   47.7694   -1.0107 C   0  0  0  0  0  0  0  0  0  0  0  0
  -11.6391   45.2016    0.6917 C   0  0  0  0  0  0  0  0  0  0  0  0
  -12.5175   45.1603   -0.5424 C   0  0  0  0  0  0  0  0  0  0  0  0
  -11.9823   44.6372   -1.7476 C   0  0  0  0  0  0  0  0  0  0  0  0
  -12.7450   44.5665   -2.9172 C   0  0  0  0  0  0  0  0  0  0  0  0
  -14.0377   45.0378   -2.8708 C   0  0  0  0  0  0  0  0  0  0  0  0
  -14.5818   45.5635   -1.7224 C   0  0  0  0  0  0  0  0  0  0  0  0
  -13.8485   45.6343   -0.5468 C   0  0  0  0  0  0  0  0  0  0  0  0
  -15.8597   45.9949   -1.9228 O   0  0  0  0  0  0  0  0  0  0  0  0
  -16.0514   45.6787   -3.3145 C   0  0  0  0  0  0  0  0  0  0  0  0
  -14.9033   45.0562   -3.9206 O   0  0  0  0  0  0  0  0  0  0  0  0
  -14.4698   46.2313    0.6448 C   0  0  0  0  0  0  0  0  0  0  0  0
  -14.8227   45.6441    1.6486 O   0  0  0  0  0  0  0  0  0  0  0  0
  -14.6721   47.5497    0.4743 O   0  0  0  0  0  0  0  0  0  0  0  0
  -14.3865   47.9696   -0.3132 H   0  0  0  0  0  0  0  0  0  0  0  0
 31 32  2  0
 32 30  1  0
 30 29  1  0
 29 28  1  0
 28  1  1  0
  1  2  2  0
  2  3  1  0
  3  4  2  0
  4  5  1  0
  5  6  2  0
  6  7  1  0
  7  8  2  0
  7  9  1  0
  9 11  1  0
 11 12  1  0
 12 13  2  0
 13 14  1  0
 14 15  2  0
 15 18  1  0
 18 19  1  0
 15 16  1  0
 16 17  2  0
 11 20  1  0
 20 21  2  0
 21 22  1  0
 22 23  2  0
 23 26  1  0
 26 27  1  0
 23 24  1  0
 24 25  2  0
 29 33  1  0
 33 34  1  0
 34 35  2  0
 35 36  1  0
 36 37  2  0
 37 38  1  0
 38 39  2  0
 39 43  1  0
 43 44  2  0
 43 45  1  0
 38 40  1  0
 40 41  1  0
 41 42  1  0
  6  1  1  0
 17 12  1  0
 25 20  1  0
 39 34  1  0
 42 37  1  0
  9 10  1  0
 45 46  1  0
M  END
> <minimizedAffinity>
-8.63639

> <CNNscore>
0.5732700825

> <CNNaffinity>
6.0490722656

> <CNN_VS>
3.4677522182

> <CNNaffinity_variance>
0.6443800330

$$$$



 46 50  0  0  0  0  0  0  0  0999 V2000
   -7.9757   46.6420    2.4045 C   0  0  0  0  0  0  0  0  0  0  0  0
   -9.2265   47.2877    2.4789 C   0  0  0  0  0  0  0  0  0  0  0  0
   -9.6119   47.9947    3.6187 C   0  0  0  0  0  0  0  0  0  0  0  0
   -8.7599   48.0615    4.7144 C   0  0  0  0  0  0  0  0  0  0  0  0
   -7.5185   47.4276    4.6655 C   0  0  0  0  0  0  0  0  0  0  0  0
   -7.1094   46.7284    3.5130 C   0  0  0  0  0  0  0  0  0  0  0  0
   -5.7683   46.0634    3.5372 C   0  0  0  0  0  0  0  0  0  0  0  0
   -5.5495   45.0777    2.8482 O   0  0  0  0  0  0  0  0  0  0  0  0
   -4.8603   46.6450    4.3989 N   0  0  0  0  0  0  0  0  0  0  0  0
   -5.1759   47.4090    4.9337 H   0  0  0  0  0  0  0  0  0  0  0  0
   -3.4743   46.2288    4.5882 C   0  0  0  0  0  0  0  0  0  0  0  0
   -2.6848   46.1122    3.2888 C   0  0  0  0  0  0  0  0  0  0  0  0
   -2.3752   47.2212    2.4929 C   0  0  0  0  0  0  0  0  0  0  0  0
   -1.6472   47.0741    1.3079 C   0  0  0  0  0  0  0  0  0  0  0  0
   -1.2171   45.8154    0.8867 C   0  0  0  0  0  0  0  0  0  0  0  0
   -1.5322   44.6989    1.6586 C   0  0  0  0  0  0  0  0  0  0  0  0
   -2.2619   44.8464    2.8450 C   0  0  0  0  0  0  0  0  0  0  0  0
   -0.5085   45.8123   -0.2824 O   0  0  0  0  0  0  0  0  0  0  0  0
   -1.0257   46.5953   -1.3500 C   0  0  0  0  0  0  0  0  0  0  0  0
   -3.2816   45.1154    5.6087 C   0  0  0  0  0  0  0  0  0  0  0  0
   -4.3473   44.2421    5.8902 C   0  0  0  0  0  0  0  0  0  0  0  0
   -4.2077   43.2022    6.8179 C   0  0  0  0  0  0  0  0  0  0  0  0
   -2.9956   43.0101    7.4782 C   0  0  0  0  0  0  0  0  0  0  0  0
   -1.9294   43.8663    7.2018 C   0  0  0  0  0  0  0  0  0  0  0  0
   -2.0653   44.9028    6.2728 C   0  0  0  0  0  0  0  0  0  0  0  0
   -2.7267   42.0380    8.4022 O   0  0  0  0  0  0  0  0  0  0  0  0
   -2.2309   42.4728    9.6616 C   0  0  0  0  0  0  0  0  0  0  0  0
   -7.6320   45.8846    1.1364 C   0  0  0  0  0  0  0  0  0  0  0  0
   -8.6483   44.9206    0.7277 N   0  0  0  0  0  0  0  0  0  0  0  0
   -8.6683   43.6425    1.4244 C   0  0  0  0  0  0  0  0  0  0  0  0
   -8.0538   41.4378    0.3791 C   0  0  0  0  0  0  0  0  0  0  0  0
   -7.6974   42.6010    0.9417 C   0  0  0  0  0  0  0  0  0  0  0  0
   -8.9343   44.8972   -0.7087 C   0  0  0  0  0  0  0  0  0  0  0  0
  -10.3496   44.5614   -1.1334 C   0  0  0  0  0  0  0  0  0  0  0  0
  -10.6428   43.2396   -1.5570 C   0  0  0  0  0  0  0  0  0  0  0  0
  -11.9305   42.8669   -1.9544 C   0  0  0  0  0  0  0  0  0  0  0  0
  -12.9123   43.8318   -1.9382 C   0  0  0  0  0  0  0  0  0  0  0  0
  -12.6578   45.1252   -1.5464 C   0  0  0  0  0  0  0  0  0  0  0  0
  -11.3910   45.5162   -1.1377 C   0  0  0  0  0  0  0  0  0  0  0  0
  -13.7700   45.9083   -1.6430 O   0  0  0  0  0  0  0  0  0  0  0  0
  -14.7406   44.9641   -2.1327 C   0  0  0  0  0  0  0  0  0  0  0  0
  -14.2074   43.6383   -2.3085 O   0  0  0  0  0  0  0  0  0  0  0  0
  -11.1676   46.9185   -0.7555 C   0  0  0  0  0  0  0  0  0  0  0  0
  -11.6157   47.4825    0.2234 O   0  0  0  0  0  0  0  0  0  0  0  0
  -10.4298   47.5588   -1.6796 O   0  0  0  0  0  0  0  0  0  0  0  0
  -10.1005   47.0917   -2.4221 H   0  0  0  0  0  0  0  0  0  0  0  0
 31 32  2  0
 32 30  1  0
 30 29  1  0
 29 28  1  0
 28  1  1  0
  1  2  2  0
  2  3  1  0
  3  4  2  0
  4  5  1  0
  5  6  2  0
  6  7  1  0
  7  8  2  0
  7  9  1  0
  9 11  1  0
 11 12  1  0
 12 13  2  0
 13 14  1  0
 14 15  2  0
 15 18  1  0
 18 19  1  0
 15 16  1  0
 16 17  2  0
 11 20  1  0
 20 21  2  0
 21 22  1  0
 22 23  2  0
 23 26  1  0
 26 27  1  0
 23 24  1  0
 24 25  2  0
 29 33  1  0
 33 34  1  0
 34 35  2  0
 35 36  1  0
 36 37  2  0
 37 38  1  0
 38 39  2  0
 39 43  1  0
 43 44  2  0
 43 45  1  0
 38 40  1  0
 40 41  1  0
 41 42  1  0
  6  1  1  0
 17 12  1  0
 25 20  1  0
 39 34  1  0
 42 37  1  0
  9 10  1  0
 45 46  1  0
M  END
> <minimizedAffinity>
-6.86498

> <CNNscore>
0.4569749236

> <CNNaffinity>
5.8475742340

> <CNN_VS>
2.6721947193

> <CNNaffinity_variance>
0.5404339433

$$$$



 46 50  0  0  0  0  0  0  0  0999 V2000
   -9.0139   43.3541   -0.5491 C   0  0  0  0  0  0  0  0  0  0  0  0
   -9.5800   42.1116   -0.8994 C   0  0  0  0  0  0  0  0  0  0  0  0
   -9.1297   40.9213   -0.3266 C   0  0  0  0  0  0  0  0  0  0  0  0
   -8.0949   40.9459    0.6004 C   0  0  0  0  0  0  0  0  0  0  0  0
   -7.5167   42.1631    0.9602 C   0  0  0  0  0  0  0  0  0  0  0  0
   -7.9763   43.3734    0.4046 C   0  0  0  0  0  0  0  0  0  0  0  0
   -7.3004   44.6397    0.8296 C   0  0  0  0  0  0  0  0  0  0  0  0
   -7.3210   45.6282    0.1108 O   0  0  0  0  0  0  0  0  0  0  0  0
   -6.6637   44.5623    2.0519 N   0  0  0  0  0  0  0  0  0  0  0  0
   -6.6818   43.6923    2.5123 H   0  0  0  0  0  0  0  0  0  0  0  0
   -5.9659   45.6546    2.7227 C   0  0  0  0  0  0  0  0  0  0  0  0
   -4.4899   45.7592    2.3541 C   0  0  0  0  0  0  0  0  0  0  0  0
   -3.6049   44.6816    2.4740 C   0  0  0  0  0  0  0  0  0  0  0  0
   -2.2575   44.8161    2.1240 C   0  0  0  0  0  0  0  0  0  0  0  0
   -1.7613   46.0318    1.6522 C   0  0  0  0  0  0  0  0  0  0  0  0
   -2.6255   47.1194    1.5435 C   0  0  0  0  0  0  0  0  0  0  0  0
   -3.9746   46.9846    1.8948 C   0  0  0  0  0  0  0  0  0  0  0  0
   -0.4309   46.0256    1.3378 O   0  0  0  0  0  0  0  0  0  0  0  0
    0.0515   44.9073    0.6047 C   0  0  0  0  0  0  0  0  0  0  0  0
   -6.3174   45.8206    4.1948 C   0  0  0  0  0  0  0  0  0  0  0  0
   -7.2138   46.8321    4.5829 C   0  0  0  0  0  0  0  0  0  0  0  0
   -7.5668   47.0130    5.9261 C   0  0  0  0  0  0  0  0  0  0  0  0
   -7.0350   46.1799    6.9087 C   0  0  0  0  0  0  0  0  0  0  0  0
   -6.1498   45.1687    6.5344 C   0  0  0  0  0  0  0  0  0  0  0  0
   -5.7993   44.9837    5.1933 C   0  0  0  0  0  0  0  0  0  0  0  0
   -7.2954   46.2478    8.2498 O   0  0  0  0  0  0  0  0  0  0  0  0
   -6.2470   45.8537    9.1253 C   0  0  0  0  0  0  0  0  0  0  0  0
   -9.5494   44.6033   -1.2220 C   0  0  0  0  0  0  0  0  0  0  0  0
  -11.0048   44.7073   -1.2067 N   0  0  0  0  0  0  0  0  0  0  0  0
  -11.6652   44.9576   -2.4796 C   0  0  0  0  0  0  0  0  0  0  0  0
  -14.0171   44.7836   -3.3568 C   0  0  0  0  0  0  0  0  0  0  0  0
  -12.9730   44.2514   -2.7063 C   0  0  0  0  0  0  0  0  0  0  0  0
  -11.5633   45.3737   -0.0278 C   0  0  0  0  0  0  0  0  0  0  0  0
  -11.9345   46.8367   -0.1631 C   0  0  0  0  0  0  0  0  0  0  0  0
  -10.9150   47.7782   -0.4574 C   0  0  0  0  0  0  0  0  0  0  0  0
  -11.1959   49.1403   -0.6009 C   0  0  0  0  0  0  0  0  0  0  0  0
  -12.4995   49.5489   -0.4312 C   0  0  0  0  0  0  0  0  0  0  0  0
  -13.5084   48.6636   -0.1317 C   0  0  0  0  0  0  0  0  0  0  0  0
  -13.2564   47.3063    0.0049 C   0  0  0  0  0  0  0  0  0  0  0  0
  -14.7055   49.2984    0.0221 O   0  0  0  0  0  0  0  0  0  0  0  0
  -14.3332   50.6688   -0.2164 C   0  0  0  0  0  0  0  0  0  0  0  0
  -12.9357   50.8348   -0.5202 O   0  0  0  0  0  0  0  0  0  0  0  0
  -14.3671   46.4077    0.3533 C   0  0  0  0  0  0  0  0  0  0  0  0
  -14.9590   45.6615   -0.4017 O   0  0  0  0  0  0  0  0  0  0  0  0
  -14.7162   46.5498    1.6440 O   0  0  0  0  0  0  0  0  0  0  0  0
  -14.2368   47.1346    2.1974 H   0  0  0  0  0  0  0  0  0  0  0  0
 31 32  2  0
 32 30  1  0
 30 29  1  0
 29 28  1  0
 28  1  1  0
  1  2  2  0
  2  3  1  0
  3  4  2  0
  4  5  1  0
  5  6  2  0
  6  7  1  0
  7  8  2  0
  7  9  1  0
  9 11  1  0
 11 12  1  0
 12 13  2  0
 13 14  1  0
 14 15  2  0
 15 18  1  0
 18 19  1  0
 15 16  1  0
 16 17  2  0
 11 20  1  0
 20 21  2  0
 21 22  1  0
 22 23  2  0
 23 26  1  0
 26 27  1  0
 23 24  1  0
 24 25  2  0
 29 33  1  0
 33 34  1  0
 34 35  2  0
 35 36  1  0
 36 37  2  0
 37 38  1  0
 38 39  2  0
 39 43  1  0
 43 44  2  0
 43 45  1  0
 38 40  1  0
 40 41  1  0
 41 42  1  0
  6  1  1  0
 17 12  1  0
 25 20  1  0
 39 34  1  0
 42 37  1  0
  9 10  1  0
 45 46  1  0
M  END
> <minimizedAffinity>
-8.14065

> <CNNscore>
0.4460728467

> <CNNaffinity>
6.3177452087

> <CNN_VS>
2.8181746006

> <CNNaffinity_variance>
0.3182687759

$$$$
