


 24 26  0  0  0  0  0  0  0  0999 V2000
  112.1620  135.5343   61.9668 C   0  0  0  0  0  0  0  0  0  0  0  0
  111.0861  136.4407   61.9141 C   0  0  0  0  0  0  0  0  0  0  0  0
  111.2860  137.7789   62.2071 C   0  0  0  0  0  0  0  0  0  0  0  0
  112.5563  138.2162   62.5551 C   0  0  0  0  0  0  0  0  0  0  0  0
  113.6454  137.3324   62.6182 C   0  0  0  0  0  0  0  0  0  0  0  0
  114.8898  137.8675   62.9796 C   0  0  0  0  0  0  0  0  0  0  0  0
  116.0177  137.0673   63.0746 C   0  0  0  0  0  0  0  0  0  0  0  0
  115.9141  135.7137   62.7995 C   0  0  0  0  0  0  0  0  0  0  0  0
  114.6886  135.1364   62.4137 C   0  0  0  0  0  0  0  0  0  0  0  0
  113.4931  135.9436   62.3269 C   0  0  0  0  0  0  0  0  0  0  0  0
  110.3436  133.6556   61.7046 O   0  0  0  0  0  0  0  0  0  0  0  0
  111.7726  133.8408   61.5841 S   0  0  0  0  0  0  0  0  0  0  0  0
  112.5180  133.4568   60.4011 O   0  0  0  0  0  0  0  0  0  0  0  0
  112.3836  132.9587   62.7919 O   0  0  0  0  0  0  0  0  0  0  0  0
  112.1983  132.0200   62.6325 H   0  0  0  0  0  0  0  0  0  0  0  0
  114.6483  133.7396   62.1771 N   0  0  0  0  0  0  0  0  0  0  0  0
  113.7559  133.3302   62.2493 H   0  0  0  0  0  0  0  0  0  0  0  0
  115.6905  132.8465   61.8542 C   0  0  0  0  0  0  0  0  0  0  0  0
  116.0297  131.7653   62.6784 C   0  0  0  0  0  0  0  0  0  0  0  0
  117.0891  130.9142   62.3482 C   0  0  0  0  0  0  0  0  0  0  0  0
  117.8301  131.1497   61.1940 C   0  0  0  0  0  0  0  0  0  0  0  0
  119.1341  130.1049   60.7851 Cl  0  0  0  0  0  0  0  0  0  0  0  0
  117.5269  132.2330   60.3746 C   0  0  0  0  0  0  0  0  0  0  0  0
  116.4670  133.0811   60.7102 C   0  0  0  0  0  0  0  0  0  0  0  0
 11 12  2  0
 12 13  2  0
 12 14  1  0
 12  1  1  0
  1  2  2  0
  2  3  1  0
  3  4  2  0
  4  5  1  0
  5  6  2  0
  6  7  1  0
  7  8  2  0
  8  9  1  0
  9 16  1  0
 16 18  1  0
 18 19  2  0
 19 20  1  0
 20 21  2  0
 21 22  1  0
 21 23  1  0
 23 24  2  0
  9 10  2  0
 10  1  1  0
 10  5  1  0
 24 18  1  0
 14 15  1  0
 16 17  1  0
M  END
> <minimizedAffinity>
-10.44048

> <CNNscore>
0.9398148656

> <CNNaffinity>
6.3891949654

> <CNN_VS>
6.0046606064

> <CNNaffinity_variance>
0.0307651386

$$$$



 24 26  0  0  0  0  0  0  0  0999 V2000
  112.4275  134.9001   62.0209 C   0  0  0  0  0  0  0  0  0  0  0  0
  111.2321  135.6299   61.8785 C   0  0  0  0  0  0  0  0  0  0  0  0
  111.2228  136.9998   62.0782 C   0  0  0  0  0  0  0  0  0  0  0  0
  112.4026  137.6446   62.4222 C   0  0  0  0  0  0  0  0  0  0  0  0
  113.6074  136.9397   62.5736 C   0  0  0  0  0  0  0  0  0  0  0  0
  114.7468  137.6781   62.9233 C   0  0  0  0  0  0  0  0  0  0  0  0
  115.9765  137.0637   63.1014 C   0  0  0  0  0  0  0  0  0  0  0  0
  116.0826  135.6942   62.9229 C   0  0  0  0  0  0  0  0  0  0  0  0
  114.9690  134.9154   62.5524 C   0  0  0  0  0  0  0  0  0  0  0  0
  113.6712  135.5271   62.3803 C   0  0  0  0  0  0  0  0  0  0  0  0
  110.9064  132.7789   61.7184 O   0  0  0  0  0  0  0  0  0  0  0  0
  112.3047  133.1452   61.7533 S   0  0  0  0  0  0  0  0  0  0  0  0
  113.2404  132.7760   60.7089 O   0  0  0  0  0  0  0  0  0  0  0  0
  112.8571  132.4486   63.1021 O   0  0  0  0  0  0  0  0  0  0  0  0
  112.8122  131.4840   63.0096 H   0  0  0  0  0  0  0  0  0  0  0  0
  115.1428  133.5154   62.4167 N   0  0  0  0  0  0  0  0  0  0  0  0
  114.3184  133.0087   62.2354 H   0  0  0  0  0  0  0  0  0  0  0  0
  116.3154  132.7371   62.5017 C   0  0  0  0  0  0  0  0  0  0  0  0
  116.2886  131.3373   62.4437 C   0  0  0  0  0  0  0  0  0  0  0  0
  117.4647  130.5901   62.5623 C   0  0  0  0  0  0  0  0  0  0  0  0
  118.6795  131.2407   62.7570 C   0  0  0  0  0  0  0  0  0  0  0  0
  120.1281  130.3246   62.9036 Cl  0  0  0  0  0  0  0  0  0  0  0  0
  118.7258  132.6290   62.8436 C   0  0  0  0  0  0  0  0  0  0  0  0
  117.5464  133.3709   62.7250 C   0  0  0  0  0  0  0  0  0  0  0  0
 11 12  2  0
 12 13  2  0
 12 14  1  0
 12  1  1  0
  1  2  2  0
  2  3  1  0
  3  4  2  0
  4  5  1  0
  5  6  2  0
  6  7  1  0
  7  8  2  0
  8  9  1  0
  9 16  1  0
 16 18  1  0
 18 19  2  0
 19 20  1  0
 20 21  2  0
 21 22  1  0
 21 23  1  0
 23 24  2  0
  9 10  2  0
 10  1  1  0
 10  5  1  0
 24 18  1  0
 14 15  1  0
 16 17  1  0
M  END
> <minimizedAffinity>
-10.17215

> <CNNscore>
0.9246479273

> <CNNaffinity>
6.3949432373

> <CNN_VS>
5.9130711555

> <CNNaffinity_variance>
0.0439418070

$$$$



 24 26  0  0  0  0  0  0  0  0999 V2000
  112.5179  134.6886   61.9309 C   0  0  0  0  0  0  0  0  0  0  0  0
  111.1550  134.9383   61.6816 C   0  0  0  0  0  0  0  0  0  0  0  0
  110.6526  136.2249   61.7759 C   0  0  0  0  0  0  0  0  0  0  0  0
  111.5053  137.2641   62.1207 C   0  0  0  0  0  0  0  0  0  0  0  0
  112.8676  137.0415   62.3775 C   0  0  0  0  0  0  0  0  0  0  0  0
  113.6494  138.1541   62.7191 C   0  0  0  0  0  0  0  0  0  0  0  0
  115.0015  138.0264   62.9966 C   0  0  0  0  0  0  0  0  0  0  0  0
  115.5928  136.7756   62.9276 C   0  0  0  0  0  0  0  0  0  0  0  0
  114.8506  135.6333   62.5695 C   0  0  0  0  0  0  0  0  0  0  0  0
  113.4355  135.7348   62.2952 C   0  0  0  0  0  0  0  0  0  0  0  0
  113.9019  132.8651   60.6411 O   0  0  0  0  0  0  0  0  0  0  0  0
  113.0365  132.9922   61.7925 S   0  0  0  0  0  0  0  0  0  0  0  0
  113.4089  132.5193   63.1118 O   0  0  0  0  0  0  0  0  0  0  0  0
  111.7172  132.1543   61.3835 O   0  0  0  0  0  0  0  0  0  0  0  0
  111.9451  131.2157   61.2942 H   0  0  0  0  0  0  0  0  0  0  0  0
  115.5130  134.3805   62.5485 N   0  0  0  0  0  0  0  0  0  0  0  0
  114.9524  133.6171   62.2797 H   0  0  0  0  0  0  0  0  0  0  0  0
  116.8517  134.0600   62.8535 C   0  0  0  0  0  0  0  0  0  0  0  0
  117.6497  133.2915   61.9957 C   0  0  0  0  0  0  0  0  0  0  0  0
  118.9648  132.9626   62.3393 C   0  0  0  0  0  0  0  0  0  0  0  0
  119.4876  133.3887   63.5566 C   0  0  0  0  0  0  0  0  0  0  0  0
  121.1048  132.9857   63.9826 Cl  0  0  0  0  0  0  0  0  0  0  0  0
  118.7041  134.1310   64.4353 C   0  0  0  0  0  0  0  0  0  0  0  0
  117.3895  134.4562   64.0867 C   0  0  0  0  0  0  0  0  0  0  0  0
 11 12  2  0
 12 13  2  0
 12 14  1  0
 12  1  1  0
  1  2  2  0
  2  3  1  0
  3  4  2  0
  4  5  1  0
  5  6  2  0
  6  7  1  0
  7  8  2  0
  8  9  1  0
  9 16  1  0
 16 18  1  0
 18 19  2  0
 19 20  1  0
 20 21  2  0
 21 22  1  0
 21 23  1  0
 23 24  2  0
  9 10  2  0
 10  1  1  0
 10  5  1  0
 24 18  1  0
 14 15  1  0
 16 17  1  0
M  END
> <minimizedAffinity>
-9.43376

> <CNNscore>
0.8182550073

> <CNNaffinity>
6.2485947609

> <CNN_VS>
5.1129441261

> <CNNaffinity_variance>
0.0041064457

$$$$



 24 26  0  0  0  0  0  0  0  0999 V2000
  115.2078  133.2440   61.3581 C   0  0  0  0  0  0  0  0  0  0  0  0
  115.9357  132.2494   60.6780 C   0  0  0  0  0  0  0  0  0  0  0  0
  117.2779  132.0541   60.9556 C   0  0  0  0  0  0  0  0  0  0  0  0
  117.8977  132.8500   61.9086 C   0  0  0  0  0  0  0  0  0  0  0  0
  117.1954  133.8509   62.5987 C   0  0  0  0  0  0  0  0  0  0  0  0
  117.9074  134.6041   63.5428 C   0  0  0  0  0  0  0  0  0  0  0  0
  117.2965  135.6175   64.2647 C   0  0  0  0  0  0  0  0  0  0  0  0
  115.9540  135.8858   64.0541 C   0  0  0  0  0  0  0  0  0  0  0  0
  115.1945  135.1419   63.1301 C   0  0  0  0  0  0  0  0  0  0  0  0
  115.8113  134.0938   62.3495 C   0  0  0  0  0  0  0  0  0  0  0  0
  113.2683  134.7538   60.4287 O   0  0  0  0  0  0  0  0  0  0  0  0
  113.4959  133.4060   60.9004 S   0  0  0  0  0  0  0  0  0  0  0  0
  113.1133  132.2320   60.1402 O   0  0  0  0  0  0  0  0  0  0  0  0
  112.6564  133.3279   62.2785 O   0  0  0  0  0  0  0  0  0  0  0  0
  111.7095  133.4116   62.0854 H   0  0  0  0  0  0  0  0  0  0  0  0
  113.8337  135.4907   62.9429 N   0  0  0  0  0  0  0  0  0  0  0  0
  113.2090  134.7304   62.9117 H   0  0  0  0  0  0  0  0  0  0  0  0
  113.2374  136.7597   62.7944 C   0  0  0  0  0  0  0  0  0  0  0  0
  111.9195  136.9177   62.3454 C   0  0  0  0  0  0  0  0  0  0  0  0
  111.3647  138.1904   62.1777 C   0  0  0  0  0  0  0  0  0  0  0  0
  112.1337  139.3194   62.4438 C   0  0  0  0  0  0  0  0  0  0  0  0
  111.4545  140.8865   62.2382 Cl  0  0  0  0  0  0  0  0  0  0  0  0
  113.4532  139.1859   62.8659 C   0  0  0  0  0  0  0  0  0  0  0  0
  114.0028  137.9108   63.0311 C   0  0  0  0  0  0  0  0  0  0  0  0
 11 12  2  0
 12 13  2  0
 12 14  1  0
 12  1  1  0
  1  2  2  0
  2  3  1  0
  3  4  2  0
  4  5  1  0
  5  6  2  0
  6  7  1  0
  7  8  2  0
  8  9  1  0
  9 16  1  0
 16 18  1  0
 18 19  2  0
 19 20  1  0
 20 21  2  0
 21 22  1  0
 21 23  1  0
 23 24  2  0
  9 10  2  0
 10  1  1  0
 10  5  1  0
 24 18  1  0
 14 15  1  0
 16 17  1  0
M  END
> <minimizedAffinity>
-8.70300

> <CNNscore>
0.7703699470

> <CNNaffinity>
5.8313260078

> <CNN_VS>
4.4922780991

> <CNNaffinity_variance>
0.0808918104

$$$$



 24 26  0  0  0  0  0  0  0  0999 V2000
  122.8163  133.0777   64.7478 C   0  0  0  0  0  0  0  0  0  0  0  0
  121.7038  133.8830   64.4388 C   0  0  0  0  0  0  0  0  0  0  0  0
  120.5700  133.3212   63.8772 C   0  0  0  0  0  0  0  0  0  0  0  0
  120.5429  131.9577   63.6203 C   0  0  0  0  0  0  0  0  0  0  0  0
  121.6400  131.1329   63.9160 C   0  0  0  0  0  0  0  0  0  0  0  0
  121.5187  129.7678   63.6201 C   0  0  0  0  0  0  0  0  0  0  0  0
  122.5545  128.8815   63.8712 C   0  0  0  0  0  0  0  0  0  0  0  0
  123.7296  129.3534   64.4326 C   0  0  0  0  0  0  0  0  0  0  0  0
  123.8886  130.7130   64.7644 C   0  0  0  0  0  0  0  0  0  0  0  0
  122.8327  131.6618   64.4943 C   0  0  0  0  0  0  0  0  0  0  0  0
  124.3598  133.5107   66.8298 O   0  0  0  0  0  0  0  0  0  0  0  0
  124.2166  133.9210   65.4507 S   0  0  0  0  0  0  0  0  0  0  0  0
  125.3079  133.8675   64.4972 O   0  0  0  0  0  0  0  0  0  0  0  0
  123.7968  135.4780   65.5483 O   0  0  0  0  0  0  0  0  0  0  0  0
  124.5298  135.9874   65.9279 H   0  0  0  0  0  0  0  0  0  0  0  0
  125.1288  131.1319   65.3075 N   0  0  0  0  0  0  0  0  0  0  0  0
  125.1072  131.9968   65.7774 H   0  0  0  0  0  0  0  0  0  0  0  0
  126.3889  130.4999   65.2781 C   0  0  0  0  0  0  0  0  0  0  0  0
  126.5399  129.1513   64.9289 C   0  0  0  0  0  0  0  0  0  0  0  0
  127.7990  128.5427   64.9389 C   0  0  0  0  0  0  0  0  0  0  0  0
  128.9186  129.2784   65.3159 C   0  0  0  0  0  0  0  0  0  0  0  0
  130.4688  128.5326   65.3297 Cl  0  0  0  0  0  0  0  0  0  0  0  0
  128.7878  130.6121   65.6915 C   0  0  0  0  0  0  0  0  0  0  0  0
  127.5262  131.2151   65.6802 C   0  0  0  0  0  0  0  0  0  0  0  0
 11 12  2  0
 12 13  2  0
 12 14  1  0
 12  1  1  0
  1  2  2  0
  2  3  1  0
  3  4  2  0
  4  5  1  0
  5  6  2  0
  6  7  1  0
  7  8  2  0
  8  9  1  0
  9 16  1  0
 16 18  1  0
 18 19  2  0
 19 20  1  0
 20 21  2  0
 21 22  1  0
 21 23  1  0
 23 24  2  0
  9 10  2  0
 10  1  1  0
 10  5  1  0
 24 18  1  0
 14 15  1  0
 16 17  1  0
M  END
> <minimizedAffinity>
-7.32249

> <CNNscore>
0.5025728345

> <CNNaffinity>
4.5157074928

> <CNN_VS>
2.2694718838

> <CNNaffinity_variance>
0.7401377559

$$$$



 24 26  0  0  0  0  0  0  0  0999 V2000
  116.3807  133.8426   62.3852 C   0  0  0  0  0  0  0  0  0  0  0  0
  115.1742  134.4669   62.0160 C   0  0  0  0  0  0  0  0  0  0  0  0
  114.7572  135.6175   62.6632 C   0  0  0  0  0  0  0  0  0  0  0  0
  115.5392  136.1466   63.6803 C   0  0  0  0  0  0  0  0  0  0  0  0
  116.7448  135.5417   64.0699 C   0  0  0  0  0  0  0  0  0  0  0  0
  117.4653  136.1497   65.1077 C   0  0  0  0  0  0  0  0  0  0  0  0
  118.6617  135.6171   65.5621 C   0  0  0  0  0  0  0  0  0  0  0  0
  119.1583  134.4656   64.9738 C   0  0  0  0  0  0  0  0  0  0  0  0
  118.4784  133.8320   63.9154 C   0  0  0  0  0  0  0  0  0  0  0  0
  117.2192  134.3543   63.4361 C   0  0  0  0  0  0  0  0  0  0  0  0
  117.0499  131.3021   62.4383 O   0  0  0  0  0  0  0  0  0  0  0  0
  116.7978  132.3632   61.4888 S   0  0  0  0  0  0  0  0  0  0  0  0
  115.8720  132.2237   60.3815 O   0  0  0  0  0  0  0  0  0  0  0  0
  118.2421  132.6393   60.8197 O   0  0  0  0  0  0  0  0  0  0  0  0
  118.5193  131.8585   60.3153 H   0  0  0  0  0  0  0  0  0  0  0  0
  119.0283  132.6401   63.3809 N   0  0  0  0  0  0  0  0  0  0  0  0
  118.4480  132.1616   62.7457 H   0  0  0  0  0  0  0  0  0  0  0  0
  120.2792  132.0348   63.6194 C   0  0  0  0  0  0  0  0  0  0  0  0
  120.4485  130.6438   63.6160 C   0  0  0  0  0  0  0  0  0  0  0  0
  121.6949  130.0706   63.8871 C   0  0  0  0  0  0  0  0  0  0  0  0
  122.7820  130.8884   64.1807 C   0  0  0  0  0  0  0  0  0  0  0  0
  124.3165  130.1865   64.5149 Cl  0  0  0  0  0  0  0  0  0  0  0  0
  122.6302  132.2715   64.2150 C   0  0  0  0  0  0  0  0  0  0  0  0
  121.3813  132.8390   63.9439 C   0  0  0  0  0  0  0  0  0  0  0  0
 11 12  2  0
 12 13  2  0
 12 14  1  0
 12  1  1  0
  1  2  2  0
  2  3  1  0
  3  4  2  0
  4  5  1  0
  5  6  2  0
  6  7  1  0
  7  8  2  0
  8  9  1  0
  9 16  1  0
 16 18  1  0
 18 19  2  0
 19 20  1  0
 20 21  2  0
 21 22  1  0
 21 23  1  0
 23 24  2  0
  9 10  2  0
 10  1  1  0
 10  5  1  0
 24 18  1  0
 14 15  1  0
 16 17  1  0
M  END
> <minimizedAffinity>
-8.79319

> <CNNscore>
0.4908120036

> <CNNaffinity>
5.1392168999

> <CNN_VS>
2.5223894119

> <CNNaffinity_variance>
0.3876388073

$$$$



 24 26  0  0  0  0  0  0  0  0999 V2000
  123.8475  132.8585   64.9257 C   0  0  0  0  0  0  0  0  0  0  0  0
  125.1290  132.3918   65.2744 C   0  0  0  0  0  0  0  0  0  0  0  0
  125.4291  131.0434   65.1844 C   0  0  0  0  0  0  0  0  0  0  0  0
  124.4534  130.1574   64.7495 C   0  0  0  0  0  0  0  0  0  0  0  0
  123.1668  130.5965   64.3988 C   0  0  0  0  0  0  0  0  0  0  0  0
  122.2488  129.6267   63.9713 C   0  0  0  0  0  0  0  0  0  0  0  0
  120.9542  129.9688   63.6130 C   0  0  0  0  0  0  0  0  0  0  0  0
  120.5626  131.2962   63.6715 C   0  0  0  0  0  0  0  0  0  0  0  0
  121.4568  132.3065   64.0761 C   0  0  0  0  0  0  0  0  0  0  0  0
  122.8056  131.9751   64.4747 C   0  0  0  0  0  0  0  0  0  0  0  0
  123.4441  135.1898   63.7825 O   0  0  0  0  0  0  0  0  0  0  0  0
  123.5826  134.6094   65.0996 S   0  0  0  0  0  0  0  0  0  0  0  0
  122.6146  134.8221   66.1581 O   0  0  0  0  0  0  0  0  0  0  0  0
  124.9740  135.2186   65.6500 O   0  0  0  0  0  0  0  0  0  0  0  0
  124.8845  136.1777   65.7637 H   0  0  0  0  0  0  0  0  0  0  0  0
  120.9799  133.6395   64.1420 N   0  0  0  0  0  0  0  0  0  0  0  0
  121.6740  134.3243   64.2778 H   0  0  0  0  0  0  0  0  0  0  0  0
  119.6637  134.1352   64.0429 C   0  0  0  0  0  0  0  0  0  0  0  0
  119.1316  135.0336   64.9773 C   0  0  0  0  0  0  0  0  0  0  0  0
  117.8119  135.4840   64.8710 C   0  0  0  0  0  0  0  0  0  0  0  0
  117.0067  135.0239   63.8334 C   0  0  0  0  0  0  0  0  0  0  0  0
  115.3828  135.5757   63.6999 Cl  0  0  0  0  0  0  0  0  0  0  0  0
  117.5067  134.1114   62.9091 C   0  0  0  0  0  0  0  0  0  0  0  0
  118.8268  133.6639   63.0209 C   0  0  0  0  0  0  0  0  0  0  0  0
 11 12  2  0
 12 13  2  0
 12 14  1  0
 12  1  1  0
  1  2  2  0
  2  3  1  0
  3  4  2  0
  4  5  1  0
  5  6  2  0
  6  7  1  0
  7  8  2  0
  8  9  1  0
  9 16  1  0
 16 18  1  0
 18 19  2  0
 19 20  1  0
 20 21  2  0
 21 22  1  0
 21 23  1  0
 23 24  2  0
  9 10  2  0
 10  1  1  0
 10  5  1  0
 24 18  1  0
 14 15  1  0
 16 17  1  0
M  END
> <minimizedAffinity>
-7.36683

> <CNNscore>
0.4707027972

> <CNNaffinity>
5.0439429283

> <CNN_VS>
2.3741979599

> <CNNaffinity_variance>
0.5398010612

$$$$



 24 26  0  0  0  0  0  0  0  0999 V2000
  117.8529  133.1511   61.5221 C   0  0  0  0  0  0  0  0  0  0  0  0
  116.9382  133.9845   60.8510 C   0  0  0  0  0  0  0  0  0  0  0  0
  116.4667  135.1354   61.4590 C   0  0  0  0  0  0  0  0  0  0  0  0
  116.9031  135.4570   62.7365 C   0  0  0  0  0  0  0  0  0  0  0  0
  117.8123  134.6413   63.4288 C   0  0  0  0  0  0  0  0  0  0  0  0
  118.1940  135.0486   64.7149 C   0  0  0  0  0  0  0  0  0  0  0  0
  119.0809  134.3007   65.4737 C   0  0  0  0  0  0  0  0  0  0  0  0
  119.6056  133.1319   64.9473 C   0  0  0  0  0  0  0  0  0  0  0  0
  119.2656  132.6944   63.6523 C   0  0  0  0  0  0  0  0  0  0  0  0
  118.3278  133.4439   62.8480 C   0  0  0  0  0  0  0  0  0  0  0  0
  117.4882  131.4980   59.5124 O   0  0  0  0  0  0  0  0  0  0  0  0
  118.3709  131.6948   60.6406 S   0  0  0  0  0  0  0  0  0  0  0  0
  119.8149  131.7278   60.5126 O   0  0  0  0  0  0  0  0  0  0  0  0
  118.0461  130.4459   61.6126 O   0  0  0  0  0  0  0  0  0  0  0  0
  118.3109  129.6203   61.1777 H   0  0  0  0  0  0  0  0  0  0  0  0
  119.8161  131.4734   63.1890 N   0  0  0  0  0  0  0  0  0  0  0  0
  119.2298  130.9504   62.5957 H   0  0  0  0  0  0  0  0  0  0  0  0
  121.0747  130.8928   63.4475 C   0  0  0  0  0  0  0  0  0  0  0  0
  121.2282  129.5224   63.6957 C   0  0  0  0  0  0  0  0  0  0  0  0
  122.4853  128.9796   63.9804 C   0  0  0  0  0  0  0  0  0  0  0  0
  123.6001  129.8109   64.0349 C   0  0  0  0  0  0  0  0  0  0  0  0
  125.1477  129.1466   64.3851 Cl  0  0  0  0  0  0  0  0  0  0  0  0
  123.4663  131.1790   63.8172 C   0  0  0  0  0  0  0  0  0  0  0  0
  122.2068  131.7162   63.5338 C   0  0  0  0  0  0  0  0  0  0  0  0
 11 12  2  0
 12 13  2  0
 12 14  1  0
 12  1  1  0
  1  2  2  0
  2  3  1  0
  3  4  2  0
  4  5  1  0
  5  6  2  0
  6  7  1  0
  7  8  2  0
  8  9  1  0
  9 16  1  0
 16 18  1  0
 18 19  2  0
 19 20  1  0
 20 21  2  0
 21 22  1  0
 21 23  1  0
 23 24  2  0
  9 10  2  0
 10  1  1  0
 10  5  1  0
 24 18  1  0
 14 15  1  0
 16 17  1  0
M  END
> <minimizedAffinity>
-8.68911

> <CNNscore>
0.4671476185

> <CNNaffinity>
4.8100199699

> <CNN_VS>
2.2469894886

> <CNNaffinity_variance>
1.0833717585

$$$$



 24 26  0  0  0  0  0  0  0  0999 V2000
  120.4919  135.6203   65.4604 C   0  0  0  0  0  0  0  0  0  0  0  0
  119.3734  136.4031   65.8041 C   0  0  0  0  0  0  0  0  0  0  0  0
  118.0977  135.9825   65.4692 C   0  0  0  0  0  0  0  0  0  0  0  0
  117.9337  134.7835   64.7898 C   0  0  0  0  0  0  0  0  0  0  0  0
  119.0325  133.9859   64.4325 C   0  0  0  0  0  0  0  0  0  0  0  0
  118.7668  132.7919   63.7472 C   0  0  0  0  0  0  0  0  0  0  0  0
  119.7908  131.9469   63.3487 C   0  0  0  0  0  0  0  0  0  0  0  0
  121.1018  132.2858   63.6403 C   0  0  0  0  0  0  0  0  0  0  0  0
  121.4144  133.4653   64.3438 C   0  0  0  0  0  0  0  0  0  0  0  0
  120.3680  134.3741   64.7528 C   0  0  0  0  0  0  0  0  0  0  0  0
  122.9617  136.2171   64.7909 O   0  0  0  0  0  0  0  0  0  0  0  0
  122.0766  136.2772   65.9327 S   0  0  0  0  0  0  0  0  0  0  0  0
  121.8590  137.4911   66.6956 O   0  0  0  0  0  0  0  0  0  0  0  0
  122.7082  135.2142   66.9725 O   0  0  0  0  0  0  0  0  0  0  0  0
  123.5794  135.5256   67.2641 H   0  0  0  0  0  0  0  0  0  0  0  0
  122.7792  133.7651   64.5810 N   0  0  0  0  0  0  0  0  0  0  0  0
  123.0101  134.7210   64.5351 H   0  0  0  0  0  0  0  0  0  0  0  0
  123.8569  132.9040   64.8727 C   0  0  0  0  0  0  0  0  0  0  0  0
  125.1493  133.3836   65.1234 C   0  0  0  0  0  0  0  0  0  0  0  0
  126.2058  132.5037   65.3789 C   0  0  0  0  0  0  0  0  0  0  0  0
  125.9786  131.1307   65.3694 C   0  0  0  0  0  0  0  0  0  0  0  0
  127.2761  130.0455   65.6830 Cl  0  0  0  0  0  0  0  0  0  0  0  0
  124.7082  130.6317   65.0971 C   0  0  0  0  0  0  0  0  0  0  0  0
  123.6559  131.5164   64.8415 C   0  0  0  0  0  0  0  0  0  0  0  0
 11 12  2  0
 12 13  2  0
 12 14  1  0
 12  1  1  0
  1  2  2  0
  2  3  1  0
  3  4  2  0
  4  5  1  0
  5  6  2  0
  6  7  1  0
  7  8  2  0
  8  9  1  0
  9 16  1  0
 16 18  1  0
 18 19  2  0
 19 20  1  0
 20 21  2  0
 21 22  1  0
 21 23  1  0
 23 24  2  0
  9 10  2  0
 10  1  1  0
 10  5  1  0
 24 18  1  0
 14 15  1  0
 16 17  1  0
M  END
> <minimizedAffinity>
-7.54226

> <CNNscore>
0.4137509465

> <CNNaffinity>
4.9576201439

> <CNN_VS>
2.0512199402

> <CNNaffinity_variance>
0.4420633316

$$$$
