


 11 10  0  0  0  0  0  0  0  0999 V2000
   -0.0417  -12.2523  -15.5216 C   0  0  0  0  0  0  0  0  0  0  0  0
   -1.4061  -11.6796  -15.9058 C   0  0  0  0  0  0  0  0  0  0  0  0
   -1.3062  -10.7862  -17.1433 C   0  0  0  0  0  0  0  0  0  0  0  0
   -2.4440   -9.7647  -17.1855 C   0  0  0  0  0  0  0  0  0  0  0  0
   -1.9209   -8.7787  -19.4448 C   0  0  0  0  0  0  0  0  0  0  0  0
   -2.9394   -9.5432  -18.6143 C   0  0  0  0  0  0  0  0  0  0  0  0
    0.7803  -11.2431  -14.7296 C   0  0  0  0  0  0  0  0  0  0  0  0
    2.2300  -11.3262  -15.1088 C   0  0  0  0  0  0  0  0  0  0  0  0
    3.1521  -11.6344  -14.3731 O   0  0  0  0  0  0  0  0  0  0  0  0
    2.4474  -11.0406  -16.4061 O   0  0  0  0  0  0  0  0  0  0  0  0
    1.7298  -10.8051  -16.9606 H   0  0  0  0  0  0  0  0  0  0  0  0
  5  6  1  0
  6  4  1  0
  4  3  1  0
  3  2  1  0
  2  1  1  0
  1  7  1  0
  7  8  1  0
  8  9  2  0
  8 10  1  0
 10 11  1  0
M  END
> <minimizedAffinity>
-4.20619

> <CNNscore>
0.7890803814

> <CNNaffinity>
4.4149708748

> <CNN_VS>
3.4837667942

> <CNNaffinity_variance>
0.2626321614

$$$$



 11 10  0  0  0  0  0  0  0  0999 V2000
   -4.8682   -4.6938  -17.4996 C   0  0  0  0  0  0  0  0  0  0  0  0
   -6.3138   -5.1791  -17.3909 C   0  0  0  0  0  0  0  0  0  0  0  0
   -6.4671   -6.5987  -17.9395 C   0  0  0  0  0  0  0  0  0  0  0  0
   -7.7165   -6.7258  -18.8128 C   0  0  0  0  0  0  0  0  0  0  0  0
   -9.4406   -7.3777  -17.0943 C   0  0  0  0  0  0  0  0  0  0  0  0
   -8.6399   -7.8324  -18.3042 C   0  0  0  0  0  0  0  0  0  0  0  0
   -4.7351   -3.2433  -17.0524 C   0  0  0  0  0  0  0  0  0  0  0  0
   -3.5672   -3.0800  -16.1242 C   0  0  0  0  0  0  0  0  0  0  0  0
   -2.9250   -2.0593  -15.9446 O   0  0  0  0  0  0  0  0  0  0  0  0
   -3.2782   -4.2061  -15.4458 O   0  0  0  0  0  0  0  0  0  0  0  0
   -3.7797   -4.9837  -15.5933 H   0  0  0  0  0  0  0  0  0  0  0  0
  5  6  1  0
  6  4  1  0
  4  3  1  0
  3  2  1  0
  2  1  1  0
  1  7  1  0
  7  8  1  0
  8  9  2  0
  8 10  1  0
 10 11  1  0
M  END
> <minimizedAffinity>
-4.64995

> <CNNscore>
0.7677810788

> <CNNaffinity>
4.5433812141

> <CNN_VS>
3.4883220196

> <CNNaffinity_variance>
0.0690426901

$$$$



 11 10  0  0  0  0  0  0  0  0999 V2000
   -1.5851   -8.8264  -17.6574 C   0  0  0  0  0  0  0  0  0  0  0  0
   -0.7008   -9.9644  -17.1474 C   0  0  0  0  0  0  0  0  0  0  0  0
   -1.5408  -11.1200  -16.6011 C   0  0  0  0  0  0  0  0  0  0  0  0
   -0.6785  -12.1161  -15.8239 C   0  0  0  0  0  0  0  0  0  0  0  0
    1.3107  -11.2772  -14.5240 C   0  0  0  0  0  0  0  0  0  0  0  0
    0.8003  -11.7341  -15.8813 C   0  0  0  0  0  0  0  0  0  0  0  0
   -1.3079   -8.5238  -19.1248 C   0  0  0  0  0  0  0  0  0  0  0  0
   -0.4545   -7.2969  -19.2608 C   0  0  0  0  0  0  0  0  0  0  0  0
   -0.0741   -6.5777  -18.3527 O   0  0  0  0  0  0  0  0  0  0  0  0
   -0.0989   -7.0469  -20.5348 O   0  0  0  0  0  0  0  0  0  0  0  0
   -0.3982   -7.6076  -21.2233 H   0  0  0  0  0  0  0  0  0  0  0  0
  5  6  1  0
  6  4  1  0
  4  3  1  0
  3  2  1  0
  2  1  1  0
  1  7  1  0
  7  8  1  0
  8  9  2  0
  8 10  1  0
 10 11  1  0
M  END
> <minimizedAffinity>
-3.23966

> <CNNscore>
0.7673662305

> <CNNaffinity>
4.1716556549

> <CNN_VS>
3.2011876106

> <CNNaffinity_variance>
0.0144860940

$$$$



 11 10  0  0  0  0  0  0  0  0999 V2000
    0.8178   -9.1078  -16.0075 C   0  0  0  0  0  0  0  0  0  0  0  0
   -0.1456   -9.8777  -16.9111 C   0  0  0  0  0  0  0  0  0  0  0  0
   -1.3102   -8.9951  -17.3630 C   0  0  0  0  0  0  0  0  0  0  0  0
   -2.5892   -9.8134  -17.5485 C   0  0  0  0  0  0  0  0  0  0  0  0
   -3.2726  -11.4320  -19.3551 C   0  0  0  0  0  0  0  0  0  0  0  0
   -2.9278   -9.9876  -19.0287 C   0  0  0  0  0  0  0  0  0  0  0  0
    2.1762   -8.9253  -16.6731 C   0  0  0  0  0  0  0  0  0  0  0  0
    3.0163  -10.1581  -16.5098 C   0  0  0  0  0  0  0  0  0  0  0  0
    2.9814  -10.9365  -15.5719 O   0  0  0  0  0  0  0  0  0  0  0  0
    3.8453  -10.3664  -17.5495 O   0  0  0  0  0  0  0  0  0  0  0  0
    3.8623   -9.7604  -18.2639 H   0  0  0  0  0  0  0  0  0  0  0  0
  5  6  1  0
  6  4  1  0
  4  3  1  0
  3  2  1  0
  2  1  1  0
  1  7  1  0
  7  8  1  0
  8  9  2  0
  8 10  1  0
 10 11  1  0
M  END
> <minimizedAffinity>
-3.70597

> <CNNscore>
0.6967214942

> <CNNaffinity>
4.5592989922

> <CNN_VS>
3.1765615940

> <CNNaffinity_variance>
0.4929263592

$$$$



 11 10  0  0  0  0  0  0  0  0999 V2000
    0.3173   -9.6781  -16.4242 C   0  0  0  0  0  0  0  0  0  0  0  0
   -0.9407  -10.1651  -17.1435 C   0  0  0  0  0  0  0  0  0  0  0  0
   -1.7615   -8.9931  -17.6842 C   0  0  0  0  0  0  0  0  0  0  0  0
   -1.3577   -8.6458  -19.1181 C   0  0  0  0  0  0  0  0  0  0  0  0
   -3.4322   -7.2497  -18.8057 C   0  0  0  0  0  0  0  0  0  0  0  0
   -2.2135   -7.5094  -19.6769 C   0  0  0  0  0  0  0  0  0  0  0  0
    0.7630  -10.6680  -15.3550 C   0  0  0  0  0  0  0  0  0  0  0  0
    2.2114  -11.0198  -15.5294 C   0  0  0  0  0  0  0  0  0  0  0  0
    2.9415  -10.6467  -16.4318 O   0  0  0  0  0  0  0  0  0  0  0  0
    2.6798  -11.8070  -14.5430 O   0  0  0  0  0  0  0  0  0  0  0  0
    2.1081  -12.0867  -13.8554 H   0  0  0  0  0  0  0  0  0  0  0  0
  5  6  1  0
  6  4  1  0
  4  3  1  0
  3  2  1  0
  2  1  1  0
  1  7  1  0
  7  8  1  0
  8  9  2  0
  8 10  1  0
 10 11  1  0
M  END
> <minimizedAffinity>
-3.55717

> <CNNscore>
0.6632385254

> <CNNaffinity>
4.2423000336

> <CNN_VS>
2.8136568069

> <CNNaffinity_variance>
0.0530156307

$$$$



 11 10  0  0  0  0  0  0  0  0999 V2000
   -2.8180   -3.0985  -17.4287 C   0  0  0  0  0  0  0  0  0  0  0  0
   -4.0283   -2.8715  -16.5228 C   0  0  0  0  0  0  0  0  0  0  0  0
   -5.3131   -3.3909  -17.1701 C   0  0  0  0  0  0  0  0  0  0  0  0
   -5.2080   -4.8813  -17.4978 C   0  0  0  0  0  0  0  0  0  0  0  0
   -6.5741   -6.9962  -17.3909 C   0  0  0  0  0  0  0  0  0  0  0  0
   -6.5890   -5.5063  -17.6934 C   0  0  0  0  0  0  0  0  0  0  0  0
   -1.5455   -3.2977  -16.6145 C   0  0  0  0  0  0  0  0  0  0  0  0
   -1.3504   -2.1642  -15.6504 C   0  0  0  0  0  0  0  0  0  0  0  0
   -1.2982   -2.2509  -14.4353 O   0  0  0  0  0  0  0  0  0  0  0  0
   -1.2052   -0.9754  -16.2648 O   0  0  0  0  0  0  0  0  0  0  0  0
   -1.2475   -0.9228  -17.1994 H   0  0  0  0  0  0  0  0  0  0  0  0
  5  6  1  0
  6  4  1  0
  4  3  1  0
  3  2  1  0
  2  1  1  0
  1  7  1  0
  7  8  1  0
  8  9  2  0
  8 10  1  0
 10 11  1  0
M  END
> <minimizedAffinity>
-3.44667

> <CNNscore>
0.6554140449

> <CNNaffinity>
3.9958388805

> <CNN_VS>
2.6189289093

> <CNNaffinity_variance>
0.2699019313

$$$$



 11 10  0  0  0  0  0  0  0  0999 V2000
   -1.3568  -10.1454  -17.2361 C   0  0  0  0  0  0  0  0  0  0  0  0
   -2.7755   -9.6271  -17.4724 C   0  0  0  0  0  0  0  0  0  0  0  0
   -2.8414   -8.1048  -17.3387 C   0  0  0  0  0  0  0  0  0  0  0  0
   -4.2808   -7.5986  -17.4464 C   0  0  0  0  0  0  0  0  0  0  0  0
   -3.5650   -5.7449  -15.8966 C   0  0  0  0  0  0  0  0  0  0  0  0
   -4.6606   -6.7419  -16.2390 C   0  0  0  0  0  0  0  0  0  0  0  0
   -1.3710  -11.5331  -16.6070 C   0  0  0  0  0  0  0  0  0  0  0  0
   -0.0023  -11.9076  -16.1187 C   0  0  0  0  0  0  0  0  0  0  0  0
    0.2727  -12.8457  -15.3900 O   0  0  0  0  0  0  0  0  0  0  0  0
    0.9612  -11.0957  -16.5923 O   0  0  0  0  0  0  0  0  0  0  0  0
    0.7363  -10.3782  -17.1515 H   0  0  0  0  0  0  0  0  0  0  0  0
  5  6  1  0
  6  4  1  0
  4  3  1  0
  3  2  1  0
  2  1  1  0
  1  7  1  0
  7  8  1  0
  8  9  2  0
  8 10  1  0
 10 11  1  0
M  END
> <minimizedAffinity>
-3.67744

> <CNNscore>
0.6386339664

> <CNNaffinity>
4.4762587547

> <CNN_VS>
2.8586909771

> <CNNaffinity_variance>
0.0420754962

$$$$



 11 10  0  0  0  0  0  0  0  0999 V2000
   -2.2317   -7.4229  -17.9714 C   0  0  0  0  0  0  0  0  0  0  0  0
   -2.7752   -7.1475  -19.3735 C   0  0  0  0  0  0  0  0  0  0  0  0
   -4.1330   -6.4456  -19.3162 C   0  0  0  0  0  0  0  0  0  0  0  0
   -4.9350   -6.8846  -18.0898 C   0  0  0  0  0  0  0  0  0  0  0  0
   -7.2847   -6.1008  -17.6263 C   0  0  0  0  0  0  0  0  0  0  0  0
   -5.8075   -5.7471  -17.5599 C   0  0  0  0  0  0  0  0  0  0  0  0
   -0.8217   -6.8700  -17.8046 C   0  0  0  0  0  0  0  0  0  0  0  0
    0.1989   -7.9519  -18.0049 C   0  0  0  0  0  0  0  0  0  0  0  0
    0.0586   -9.1343  -17.7423 O   0  0  0  0  0  0  0  0  0  0  0  0
    1.3419   -7.4967  -18.5507 O   0  0  0  0  0  0  0  0  0  0  0  0
    1.4368   -6.5855  -18.7476 H   0  0  0  0  0  0  0  0  0  0  0  0
  5  6  1  0
  6  4  1  0
  4  3  1  0
  3  2  1  0
  2  1  1  0
  1  7  1  0
  7  8  1  0
  8  9  2  0
  8 10  1  0
 10 11  1  0
M  END
> <minimizedAffinity>
-3.37711

> <CNNscore>
0.6113541126

> <CNNaffinity>
3.8440258503

> <CNN_VS>
2.3500609398

> <CNNaffinity_variance>
0.1698818207

$$$$



 11 10  0  0  0  0  0  0  0  0999 V2000
   -3.1555   -9.3073  -17.2793 C   0  0  0  0  0  0  0  0  0  0  0  0
   -3.7881   -8.1697  -18.0810 C   0  0  0  0  0  0  0  0  0  0  0  0
   -4.5644   -7.2140  -17.1736 C   0  0  0  0  0  0  0  0  0  0  0  0
   -4.7945   -5.8638  -17.8546 C   0  0  0  0  0  0  0  0  0  0  0  0
   -7.2625   -6.3025  -17.5956 C   0  0  0  0  0  0  0  0  0  0  0  0
   -6.1510   -5.2724  -17.4723 C   0  0  0  0  0  0  0  0  0  0  0  0
   -1.7684   -9.6530  -17.8069 C   0  0  0  0  0  0  0  0  0  0  0  0
   -1.1227  -10.7034  -16.9515 C   0  0  0  0  0  0  0  0  0  0  0  0
   -0.3613  -10.5078  -16.0195 O   0  0  0  0  0  0  0  0  0  0  0  0
   -1.4866  -11.9529  -17.2953 O   0  0  0  0  0  0  0  0  0  0  0  0
   -2.0725  -12.0893  -18.0137 H   0  0  0  0  0  0  0  0  0  0  0  0
  5  6  1  0
  6  4  1  0
  4  3  1  0
  3  2  1  0
  2  1  1  0
  1  7  1  0
  7  8  1  0
  8  9  2  0
  8 10  1  0
 10 11  1  0
M  END
> <minimizedAffinity>
-3.79405

> <CNNscore>
0.5939036608

> <CNNaffinity>
4.2066078186

> <CNN_VS>
2.4983198643

> <CNNaffinity_variance>
0.0655025542

$$$$
