


 23 25  0  0  0  0  0  0  0  0999 V2000
   37.7036  -10.3393  -14.3390 O   0  0  0  0  0  0  0  0  0  0  0  0
   38.4414  -11.1917  -13.5793 C   0  0  0  0  0  0  0  0  0  0  0  0
   38.4750  -10.8433  -12.2891 N   0  0  0  0  0  0  0  0  0  0  0  0
   39.2004  -11.6498  -11.4961 C   0  0  0  0  0  0  0  0  0  0  0  0
   39.8793  -12.7208  -11.9411 N   0  0  0  0  0  0  0  0  0  0  0  0
   39.8136  -13.0235  -13.2598 C   0  0  0  0  0  0  0  0  0  0  0  0
   39.0698  -12.2758  -14.1522 C   0  0  0  0  0  0  0  0  0  0  0  0
   38.9734  -12.5165  -15.6250 C   0  0  0  0  0  0  0  0  0  0  0  0
   39.5451  -14.1397  -16.1970 S   0  0  0  0  0  0  0  0  0  0  0  0
   40.9970  -14.2822  -15.1224 C   0  0  0  0  0  0  0  0  0  0  0  0
   40.5651  -14.2636  -13.6650 C   0  0  0  0  0  0  0  0  0  0  0  0
   37.2796   -9.6045  -13.9411 H   0  0  0  0  0  0  0  0  0  0  0  0
   39.2777  -11.3095  -10.0665 C   0  0  0  0  0  0  0  0  0  0  0  0
   39.1460   -9.9746   -9.6300 C   0  0  0  0  0  0  0  0  0  0  0  0
   39.2224   -9.6303   -8.2738 C   0  0  0  0  0  0  0  0  0  0  0  0
   39.4382  -10.6139   -7.3017 C   0  0  0  0  0  0  0  0  0  0  0  0
   39.5564  -11.9450   -7.7169 C   0  0  0  0  0  0  0  0  0  0  0  0
   39.4787  -12.2782   -9.0725 C   0  0  0  0  0  0  0  0  0  0  0  0
   39.5819  -13.5791   -9.3837 F   0  0  0  0  0  0  0  0  0  0  0  0
   39.4988  -10.2579   -5.8375 C   0  0  0  0  0  0  0  0  0  0  0  0
   40.3893  -11.0167   -5.1411 F   0  0  0  0  0  0  0  0  0  0  0  0
   38.2988  -10.4214   -5.2171 F   0  0  0  0  0  0  0  0  0  0  0  0
   39.8617   -8.9636   -5.6182 F   0  0  0  0  0  0  0  0  0  0  0  0
  1  2  1  0
  2  3  2  0
  3  4  1  0
  4 13  1  0
 13 14  2  0
 14 15  1  0
 15 16  2  0
 16 20  1  0
 20 21  1  0
 20 22  1  0
 20 23  1  0
 16 17  1  0
 17 18  2  0
 18 19  1  0
  4  5  2  0
  5  6  1  0
  6  7  2  0
  7  8  1  0
  8  9  1  0
  9 10  1  0
 10 11  1  0
  7  2  1  0
 18 13  1  0
 11  6  1  0
  1 12  1  0
M  END
> <minimizedAffinity>
-11.14247

> <CNNscore>
0.8585219979

> <CNNaffinity>
7.0845794678

> <CNN_VS>
6.0822672844

> <CNNaffinity_variance>
0.1351943761

$$$$



 23 25  0  0  0  0  0  0  0  0999 V2000
   37.7826  -10.2715  -14.4280 O   0  0  0  0  0  0  0  0  0  0  0  0
   38.5167  -11.2068  -13.7690 C   0  0  0  0  0  0  0  0  0  0  0  0
   38.5922  -10.9781  -12.4541 N   0  0  0  0  0  0  0  0  0  0  0  0
   39.3160  -11.8705  -11.7574 C   0  0  0  0  0  0  0  0  0  0  0  0
   39.9549  -12.9125  -12.3158 N   0  0  0  0  0  0  0  0  0  0  0  0
   39.8479  -13.0925  -13.6542 C   0  0  0  0  0  0  0  0  0  0  0  0
   39.1016  -12.2491  -14.4545 C   0  0  0  0  0  0  0  0  0  0  0  0
   38.9617  -12.3526  -15.9398 C   0  0  0  0  0  0  0  0  0  0  0  0
   39.4757  -13.9304  -16.6715 S   0  0  0  0  0  0  0  0  0  0  0  0
   40.9501  -14.2047  -15.6547 C   0  0  0  0  0  0  0  0  0  0  0  0
   40.5559  -14.3082  -14.1901 C   0  0  0  0  0  0  0  0  0  0  0  0
   37.3884   -9.5660  -13.9539 H   0  0  0  0  0  0  0  0  0  0  0  0
   39.4384  -11.6635  -10.3056 C   0  0  0  0  0  0  0  0  0  0  0  0
   39.1729  -12.7103   -9.3982 C   0  0  0  0  0  0  0  0  0  0  0  0
   39.2784  -12.5308   -8.0125 C   0  0  0  0  0  0  0  0  0  0  0  0
   39.6515  -11.2902   -7.4827 C   0  0  0  0  0  0  0  0  0  0  0  0
   39.9325  -10.2452   -8.3700 C   0  0  0  0  0  0  0  0  0  0  0  0
   39.8242  -10.4345   -9.7509 C   0  0  0  0  0  0  0  0  0  0  0  0
   40.1309   -9.3877  -10.5320 F   0  0  0  0  0  0  0  0  0  0  0  0
   39.7909  -11.0922   -5.9942 C   0  0  0  0  0  0  0  0  0  0  0  0
   39.8416   -9.7802   -5.6337 F   0  0  0  0  0  0  0  0  0  0  0  0
   40.9246  -11.6617   -5.5023 F   0  0  0  0  0  0  0  0  0  0  0  0
   38.7610  -11.6329   -5.2857 F   0  0  0  0  0  0  0  0  0  0  0  0
  1  2  1  0
  2  3  2  0
  3  4  1  0
  4 13  1  0
 13 14  2  0
 14 15  1  0
 15 16  2  0
 16 20  1  0
 20 21  1  0
 20 22  1  0
 20 23  1  0
 16 17  1  0
 17 18  2  0
 18 19  1  0
  4  5  2  0
  5  6  1  0
  6  7  2  0
  7  8  1  0
  8  9  1  0
  9 10  1  0
 10 11  1  0
  7  2  1  0
 18 13  1  0
 11  6  1  0
  1 12  1  0
M  END
> <minimizedAffinity>
-11.27260

> <CNNscore>
0.7426799536

> <CNNaffinity>
6.8846764565

> <CNN_VS>
5.1131110191

> <CNNaffinity_variance>
0.0485154688

$$$$



 23 25  0  0  0  0  0  0  0  0999 V2000
   37.9644  -19.0838   -1.5371 O   0  0  0  0  0  0  0  0  0  0  0  0
   36.7203  -18.5358   -1.5313 C   0  0  0  0  0  0  0  0  0  0  0  0
   36.7399  -17.1991   -1.5377 N   0  0  0  0  0  0  0  0  0  0  0  0
   35.5334  -16.6079   -1.5227 C   0  0  0  0  0  0  0  0  0  0  0  0
   34.3720  -17.2821   -1.4750 N   0  0  0  0  0  0  0  0  0  0  0  0
   34.4124  -18.6361   -1.4649 C   0  0  0  0  0  0  0  0  0  0  0  0
   35.6010  -19.3390   -1.5099 C   0  0  0  0  0  0  0  0  0  0  0  0
   35.7371  -20.8275   -1.4642 C   0  0  0  0  0  0  0  0  0  0  0  0
   34.2196  -21.7675   -1.7843 S   0  0  0  0  0  0  0  0  0  0  0  0
   33.0750  -20.7097   -0.8601 C   0  0  0  0  0  0  0  0  0  0  0  0
   33.0670  -19.3117   -1.4572 C   0  0  0  0  0  0  0  0  0  0  0  0
   38.7201  -18.5301   -1.5517 H   0  0  0  0  0  0  0  0  0  0  0  0
   35.4958  -15.1368   -1.5220 C   0  0  0  0  0  0  0  0  0  0  0  0
   36.0262  -14.3976   -0.4440 C   0  0  0  0  0  0  0  0  0  0  0  0
   35.9944  -12.9968   -0.4227 C   0  0  0  0  0  0  0  0  0  0  0  0
   35.4245  -12.2824   -1.4828 C   0  0  0  0  0  0  0  0  0  0  0  0
   34.9069  -13.0004   -2.5668 C   0  0  0  0  0  0  0  0  0  0  0  0
   34.9435  -14.3980   -2.5784 C   0  0  0  0  0  0  0  0  0  0  0  0
   34.4444  -15.0082   -3.6640 F   0  0  0  0  0  0  0  0  0  0  0  0
   35.4058  -10.7745   -1.4814 C   0  0  0  0  0  0  0  0  0  0  0  0
   34.7073  -10.2512   -0.4363 F   0  0  0  0  0  0  0  0  0  0  0  0
   34.8366  -10.2649   -2.6074 F   0  0  0  0  0  0  0  0  0  0  0  0
   36.6505  -10.2261   -1.4085 F   0  0  0  0  0  0  0  0  0  0  0  0
  1  2  1  0
  2  3  2  0
  3  4  1  0
  4 13  1  0
 13 14  2  0
 14 15  1  0
 15 16  2  0
 16 20  1  0
 20 21  1  0
 20 22  1  0
 20 23  1  0
 16 17  1  0
 17 18  2  0
 18 19  1  0
  4  5  2  0
  5  6  1  0
  6  7  2  0
  7  8  1  0
  8  9  1  0
  9 10  1  0
 10 11  1  0
  7  2  1  0
 18 13  1  0
 11  6  1  0
  1 12  1  0
M  END
> <minimizedAffinity>
-4.11022

> <CNNscore>
0.4164433479

> <CNNaffinity>
4.8247857094

> <CNN_VS>
2.0092499256

> <CNNaffinity_variance>
0.6414186358

$$$$



 23 25  0  0  0  0  0  0  0  0999 V2000
   37.6511  -19.8111   -0.3299 O   0  0  0  0  0  0  0  0  0  0  0  0
   36.7850  -19.3141   -1.2524 C   0  0  0  0  0  0  0  0  0  0  0  0
   36.9742  -18.0134   -1.4967 N   0  0  0  0  0  0  0  0  0  0  0  0
   36.1358  -17.4710   -2.3959 C   0  0  0  0  0  0  0  0  0  0  0  0
   35.1489  -18.1521   -3.0023 N   0  0  0  0  0  0  0  0  0  0  0  0
   35.0001  -19.4670   -2.7124 C   0  0  0  0  0  0  0  0  0  0  0  0
   35.8303  -20.1253   -1.8257 C   0  0  0  0  0  0  0  0  0  0  0  0
   35.7129  -21.5602   -1.4211 C   0  0  0  0  0  0  0  0  0  0  0  0
   34.6644  -22.5939   -2.4798 S   0  0  0  0  0  0  0  0  0  0  0  0
   33.3409  -21.3900   -2.7665 C   0  0  0  0  0  0  0  0  0  0  0  0
   33.9011  -20.1639   -3.4693 C   0  0  0  0  0  0  0  0  0  0  0  0
   38.2973  -19.2523    0.0550 H   0  0  0  0  0  0  0  0  0  0  0  0
   36.2946  -16.0397   -2.6983 C   0  0  0  0  0  0  0  0  0  0  0  0
   37.5629  -15.4240   -2.6507 C   0  0  0  0  0  0  0  0  0  0  0  0
   37.7332  -14.0615   -2.9298 C   0  0  0  0  0  0  0  0  0  0  0  0
   36.6345  -13.2615   -3.2644 C   0  0  0  0  0  0  0  0  0  0  0  0
   35.3713  -13.8602   -3.3304 C   0  0  0  0  0  0  0  0  0  0  0  0
   35.2120  -15.2205   -3.0501 C   0  0  0  0  0  0  0  0  0  0  0  0
   33.9712  -15.7198   -3.1557 F   0  0  0  0  0  0  0  0  0  0  0  0
   36.8093  -11.7994   -3.5895 C   0  0  0  0  0  0  0  0  0  0  0  0
   35.7770  -11.0285   -3.1491 F   0  0  0  0  0  0  0  0  0  0  0  0
   36.9009  -11.5764   -4.9287 F   0  0  0  0  0  0  0  0  0  0  0  0
   37.9345  -11.2623   -3.0414 F   0  0  0  0  0  0  0  0  0  0  0  0
  1  2  1  0
  2  3  2  0
  3  4  1  0
  4 13  1  0
 13 14  2  0
 14 15  1  0
 15 16  2  0
 16 20  1  0
 20 21  1  0
 20 22  1  0
 20 23  1  0
 16 17  1  0
 17 18  2  0
 18 19  1  0
  4  5  2  0
  5  6  1  0
  6  7  2  0
  7  8  1  0
  8  9  1  0
  9 10  1  0
 10 11  1  0
  7  2  1  0
 18 13  1  0
 11  6  1  0
  1 12  1  0
M  END
> <minimizedAffinity>
-5.52058

> <CNNscore>
0.2932769060

> <CNNaffinity>
4.6608061790

> <CNN_VS>
1.3669067621

> <CNNaffinity_variance>
0.1598651111

$$$$



 23 25  0  0  0  0  0  0  0  0999 V2000
   36.6036  -12.8861   -4.7339 O   0  0  0  0  0  0  0  0  0  0  0  0
   36.2948  -13.5179   -3.5705 C   0  0  0  0  0  0  0  0  0  0  0  0
   36.1702  -14.8412   -3.7135 N   0  0  0  0  0  0  0  0  0  0  0  0
   35.8557  -15.5121   -2.5926 C   0  0  0  0  0  0  0  0  0  0  0  0
   35.6459  -14.9224   -1.4035 N   0  0  0  0  0  0  0  0  0  0  0  0
   35.7806  -13.5772   -1.3181 C   0  0  0  0  0  0  0  0  0  0  0  0
   36.1320  -12.8006   -2.4054 C   0  0  0  0  0  0  0  0  0  0  0  0
   36.2647  -11.3110   -2.4078 C   0  0  0  0  0  0  0  0  0  0  0  0
   36.3692  -10.5269   -0.7759 S   0  0  0  0  0  0  0  0  0  0  0  0
   35.1338  -11.5489    0.0681 C   0  0  0  0  0  0  0  0  0  0  0  0
   35.5732  -13.0041    0.0585 C   0  0  0  0  0  0  0  0  0  0  0  0
   36.7125  -13.3818   -5.5216 H   0  0  0  0  0  0  0  0  0  0  0  0
   35.6992  -16.9718   -2.6937 C   0  0  0  0  0  0  0  0  0  0  0  0
   34.4675  -17.5921   -2.3972 C   0  0  0  0  0  0  0  0  0  0  0  0
   34.3008  -18.9808   -2.4821 C   0  0  0  0  0  0  0  0  0  0  0  0
   35.3671  -19.8028   -2.8650 C   0  0  0  0  0  0  0  0  0  0  0  0
   36.5918  -19.2017   -3.1767 C   0  0  0  0  0  0  0  0  0  0  0  0
   36.7479  -17.8151   -3.0888 C   0  0  0  0  0  0  0  0  0  0  0  0
   37.9479  -17.3179   -3.4244 F   0  0  0  0  0  0  0  0  0  0  0  0
   35.1926  -21.2960   -2.9824 C   0  0  0  0  0  0  0  0  0  0  0  0
   35.6502  -21.9732   -1.8934 F   0  0  0  0  0  0  0  0  0  0  0  0
   35.8579  -21.8103   -4.0523 F   0  0  0  0  0  0  0  0  0  0  0  0
   33.8919  -21.6705   -3.1336 F   0  0  0  0  0  0  0  0  0  0  0  0
  1  2  1  0
  2  3  2  0
  3  4  1  0
  4 13  1  0
 13 14  2  0
 14 15  1  0
 15 16  2  0
 16 20  1  0
 20 21  1  0
 20 22  1  0
 20 23  1  0
 16 17  1  0
 17 18  2  0
 18 19  1  0
  4  5  2  0
  5  6  1  0
  6  7  2  0
  7  8  1  0
  8  9  1  0
  9 10  1  0
 10 11  1  0
  7  2  1  0
 18 13  1  0
 11  6  1  0
  1 12  1  0
M  END
> <minimizedAffinity>
-4.76807

> <CNNscore>
0.2831444144

> <CNNaffinity>
4.4492287636

> <CNN_VS>
1.2597743273

> <CNNaffinity_variance>
0.2752566636

$$$$



 23 25  0  0  0  0  0  0  0  0999 V2000
   39.0779  -10.4479   -3.1448 O   0  0  0  0  0  0  0  0  0  0  0  0
   38.2258  -11.0924   -3.9853 C   0  0  0  0  0  0  0  0  0  0  0  0
   37.2523  -11.7440   -3.3412 N   0  0  0  0  0  0  0  0  0  0  0  0
   36.3876  -12.4064   -4.1280 C   0  0  0  0  0  0  0  0  0  0  0  0
   36.4832  -12.4548   -5.4675 N   0  0  0  0  0  0  0  0  0  0  0  0
   37.4934  -11.7799   -6.0667 C   0  0  0  0  0  0  0  0  0  0  0  0
   38.4158  -11.0430   -5.3491 C   0  0  0  0  0  0  0  0  0  0  0  0
   39.5799  -10.3021   -5.9257 C   0  0  0  0  0  0  0  0  0  0  0  0
   39.5275  -10.0239   -7.7170 S   0  0  0  0  0  0  0  0  0  0  0  0
   38.8684  -11.6415   -8.1984 C   0  0  0  0  0  0  0  0  0  0  0  0
   37.4996  -11.8494   -7.5706 C   0  0  0  0  0  0  0  0  0  0  0  0
   38.9412  -10.4868   -2.2186 H   0  0  0  0  0  0  0  0  0  0  0  0
   35.2990  -13.1473   -3.4710 C   0  0  0  0  0  0  0  0  0  0  0  0
   34.1044  -12.4991   -3.0935 C   0  0  0  0  0  0  0  0  0  0  0  0
   33.0593  -13.1863   -2.4619 C   0  0  0  0  0  0  0  0  0  0  0  0
   33.1743  -14.5526   -2.1808 C   0  0  0  0  0  0  0  0  0  0  0  0
   34.3473  -15.2138   -2.5621 C   0  0  0  0  0  0  0  0  0  0  0  0
   35.3844  -14.5190   -3.1917 C   0  0  0  0  0  0  0  0  0  0  0  0
   36.4658  -15.2315   -3.5424 F   0  0  0  0  0  0  0  0  0  0  0  0
   32.0467  -15.3073   -1.5228 C   0  0  0  0  0  0  0  0  0  0  0  0
   31.7841  -14.8769   -0.2580 F   0  0  0  0  0  0  0  0  0  0  0  0
   32.3081  -16.6388   -1.4205 F   0  0  0  0  0  0  0  0  0  0  0  0
   30.8703  -15.2066   -2.2016 F   0  0  0  0  0  0  0  0  0  0  0  0
  1  2  1  0
  2  3  2  0
  3  4  1  0
  4 13  1  0
 13 14  2  0
 14 15  1  0
 15 16  2  0
 16 20  1  0
 20 21  1  0
 20 22  1  0
 20 23  1  0
 16 17  1  0
 17 18  2  0
 18 19  1  0
  4  5  2  0
  5  6  1  0
  6  7  2  0
  7  8  1  0
  8  9  1  0
  9 10  1  0
 10 11  1  0
  7  2  1  0
 18 13  1  0
 11  6  1  0
  1 12  1  0
M  END
> <minimizedAffinity>
-6.55238

> <CNNscore>
0.2545331419

> <CNNaffinity>
4.4534425735

> <CNN_VS>
1.1335487366

> <CNNaffinity_variance>
0.4367512763

$$$$



 23 25  0  0  0  0  0  0  0  0999 V2000
   35.0169  -12.5824   -3.3086 O   0  0  0  0  0  0  0  0  0  0  0  0
   34.0798  -13.4419   -2.8278 C   0  0  0  0  0  0  0  0  0  0  0  0
   34.5479  -14.6830   -2.6616 N   0  0  0  0  0  0  0  0  0  0  0  0
   33.6567  -15.5746   -2.1966 C   0  0  0  0  0  0  0  0  0  0  0  0
   32.3721  -15.2793   -1.9350 N   0  0  0  0  0  0  0  0  0  0  0  0
   31.9511  -14.0061   -2.1269 C   0  0  0  0  0  0  0  0  0  0  0  0
   32.7972  -13.0086   -2.5718 C   0  0  0  0  0  0  0  0  0  0  0  0
   32.4073  -11.5911   -2.8459 C   0  0  0  0  0  0  0  0  0  0  0  0
   30.8157  -11.0642   -2.1545 S   0  0  0  0  0  0  0  0  0  0  0  0
   29.8832  -12.5786   -2.5008 C   0  0  0  0  0  0  0  0  0  0  0  0
   30.5117  -13.7518   -1.7663 C   0  0  0  0  0  0  0  0  0  0  0  0
   35.8868  -12.8855   -3.4798 H   0  0  0  0  0  0  0  0  0  0  0  0
   34.1164  -16.9587   -2.0011 C   0  0  0  0  0  0  0  0  0  0  0  0
   33.4796  -17.8112   -1.0749 C   0  0  0  0  0  0  0  0  0  0  0  0
   33.9065  -19.1301   -0.8708 C   0  0  0  0  0  0  0  0  0  0  0  0
   34.9936  -19.6444   -1.5869 C   0  0  0  0  0  0  0  0  0  0  0  0
   35.6271  -18.8163   -2.5202 C   0  0  0  0  0  0  0  0  0  0  0  0
   35.1936  -17.5017   -2.7165 C   0  0  0  0  0  0  0  0  0  0  0  0
   35.8424  -16.7817   -3.6441 F   0  0  0  0  0  0  0  0  0  0  0  0
   35.4469  -21.0695   -1.3923 C   0  0  0  0  0  0  0  0  0  0  0  0
   36.5963  -21.1691   -0.6693 F   0  0  0  0  0  0  0  0  0  0  0  0
   35.6898  -21.6991   -2.5739 F   0  0  0  0  0  0  0  0  0  0  0  0
   34.5296  -21.8362   -0.7398 F   0  0  0  0  0  0  0  0  0  0  0  0
  1  2  1  0
  2  3  2  0
  3  4  1  0
  4 13  1  0
 13 14  2  0
 14 15  1  0
 15 16  2  0
 16 20  1  0
 20 21  1  0
 20 22  1  0
 20 23  1  0
 16 17  1  0
 17 18  2  0
 18 19  1  0
  4  5  2  0
  5  6  1  0
  6  7  2  0
  7  8  1  0
  8  9  1  0
  9 10  1  0
 10 11  1  0
  7  2  1  0
 18 13  1  0
 11  6  1  0
  1 12  1  0
M  END
> <minimizedAffinity>
-4.52083

> <CNNscore>
0.2514176667

> <CNNaffinity>
4.6341714859

> <CNN_VS>
1.1651126146

> <CNNaffinity_variance>
0.1316695213

$$$$



 23 25  0  0  0  0  0  0  0  0999 V2000
   38.6605   -7.9363   -9.3138 O   0  0  0  0  0  0  0  0  0  0  0  0
   38.7701   -9.2299   -8.9105 C   0  0  0  0  0  0  0  0  0  0  0  0
   38.6568   -9.3740   -7.5863 N   0  0  0  0  0  0  0  0  0  0  0  0
   38.7676  -10.6348   -7.1352 C   0  0  0  0  0  0  0  0  0  0  0  0
   39.0045  -11.6935   -7.9281 N   0  0  0  0  0  0  0  0  0  0  0  0
   39.1157  -11.4877   -9.2625 C   0  0  0  0  0  0  0  0  0  0  0  0
   38.9861  -10.2341   -9.8287 C   0  0  0  0  0  0  0  0  0  0  0  0
   39.1319   -9.9136  -11.2822 C   0  0  0  0  0  0  0  0  0  0  0  0
   39.0675  -11.3309  -12.4117 S   0  0  0  0  0  0  0  0  0  0  0  0
   40.0345  -12.4894  -11.4087 C   0  0  0  0  0  0  0  0  0  0  0  0
   39.3349  -12.7320  -10.0810 C   0  0  0  0  0  0  0  0  0  0  0  0
   38.5136   -7.2596   -8.6825 H   0  0  0  0  0  0  0  0  0  0  0  0
   38.6575  -10.8510   -5.6837 C   0  0  0  0  0  0  0  0  0  0  0  0
   39.6132  -10.3149   -4.7954 C   0  0  0  0  0  0  0  0  0  0  0  0
   39.5284  -10.5148   -3.4111 C   0  0  0  0  0  0  0  0  0  0  0  0
   38.4813  -11.2653   -2.8639 C   0  0  0  0  0  0  0  0  0  0  0  0
   37.5167  -11.7918   -3.7304 C   0  0  0  0  0  0  0  0  0  0  0  0
   37.6103  -11.5867   -5.1101 C   0  0  0  0  0  0  0  0  0  0  0  0
   36.6337  -12.1082   -5.8680 F   0  0  0  0  0  0  0  0  0  0  0  0
   38.3671  -11.4671   -1.3739 C   0  0  0  0  0  0  0  0  0  0  0  0
   39.5391  -11.8508   -0.7967 F   0  0  0  0  0  0  0  0  0  0  0  0
   37.4573  -12.4264   -1.0518 F   0  0  0  0  0  0  0  0  0  0  0  0
   37.9773  -10.3424   -0.7119 F   0  0  0  0  0  0  0  0  0  0  0  0
  1  2  1  0
  2  3  2  0
  3  4  1  0
  4 13  1  0
 13 14  2  0
 14 15  1  0
 15 16  2  0
 16 20  1  0
 20 21  1  0
 20 22  1  0
 20 23  1  0
 16 17  1  0
 17 18  2  0
 18 19  1  0
  4  5  2  0
  5  6  1  0
  6  7  2  0
  7  8  1  0
  8  9  1  0
  9 10  1  0
 10 11  1  0
  7  2  1  0
 18 13  1  0
 11  6  1  0
  1 12  1  0
M  END
> <minimizedAffinity>
-7.42089

> <CNNscore>
0.2335400432

> <CNNaffinity>
5.5353512764

> <CNN_VS>
1.2927261591

> <CNNaffinity_variance>
0.0622256696

$$$$



 23 25  0  0  0  0  0  0  0  0999 V2000
   38.7396  -14.9492   -0.9876 O   0  0  0  0  0  0  0  0  0  0  0  0
   38.4755  -13.8177   -1.6934 C   0  0  0  0  0  0  0  0  0  0  0  0
   37.1777  -13.4973   -1.6972 N   0  0  0  0  0  0  0  0  0  0  0  0
   36.8624  -12.3902   -2.3903 C   0  0  0  0  0  0  0  0  0  0  0  0
   37.7588  -11.6519   -3.0665 N   0  0  0  0  0  0  0  0  0  0  0  0
   39.0601  -12.0268   -3.0320 C   0  0  0  0  0  0  0  0  0  0  0  0
   39.4911  -13.1311   -2.3223 C   0  0  0  0  0  0  0  0  0  0  0  0
   40.8976  -13.6356   -2.2622 C   0  0  0  0  0  0  0  0  0  0  0  0
   42.1744  -12.4783   -2.8273 S   0  0  0  0  0  0  0  0  0  0  0  0
   41.2789  -11.7979   -4.2479 C   0  0  0  0  0  0  0  0  0  0  0  0
   40.0024  -11.1196   -3.7774 C   0  0  0  0  0  0  0  0  0  0  0  0
   38.0429  -15.4098   -0.5630 H   0  0  0  0  0  0  0  0  0  0  0  0
   35.4457  -11.9942   -2.4338 C   0  0  0  0  0  0  0  0  0  0  0  0
   34.4790  -12.8219   -3.0422 C   0  0  0  0  0  0  0  0  0  0  0  0
   33.1267  -12.4594   -3.0985 C   0  0  0  0  0  0  0  0  0  0  0  0
   32.6919  -11.2479   -2.5487 C   0  0  0  0  0  0  0  0  0  0  0  0
   33.6361  -10.4220   -1.9285 C   0  0  0  0  0  0  0  0  0  0  0  0
   34.9831  -10.7927   -1.8776 C   0  0  0  0  0  0  0  0  0  0  0  0
   35.8192   -9.9539   -1.2473 F   0  0  0  0  0  0  0  0  0  0  0  0
   31.2354  -10.8584   -2.5829 C   0  0  0  0  0  0  0  0  0  0  0  0
   30.5148  -11.4005   -1.5627 F   0  0  0  0  0  0  0  0  0  0  0  0
   30.6219  -11.2568   -3.7303 F   0  0  0  0  0  0  0  0  0  0  0  0
   31.0415   -9.5127   -2.5010 F   0  0  0  0  0  0  0  0  0  0  0  0
  1  2  1  0
  2  3  2  0
  3  4  1  0
  4 13  1  0
 13 14  2  0
 14 15  1  0
 15 16  2  0
 16 20  1  0
 20 21  1  0
 20 22  1  0
 20 23  1  0
 16 17  1  0
 17 18  2  0
 18 19  1  0
  4  5  2  0
  5  6  1  0
  6  7  2  0
  7  8  1  0
  8  9  1  0
  9 10  1  0
 10 11  1  0
  7  2  1  0
 18 13  1  0
 11  6  1  0
  1 12  1  0
M  END
> <minimizedAffinity>
-4.53896

> <CNNscore>
0.2316944301

> <CNNaffinity>
4.5491976738

> <CNN_VS>
1.0540237427

> <CNNaffinity_variance>
0.1025224552

$$$$
