


 40 43  0  0  0  0  0  0  0  0999 V2000
   45.6230   11.9346    0.7404 C   0  0  0  0  0  0  0  0  0  0  0  0
   44.5077   11.2528    0.2483 C   0  0  0  0  0  0  0  0  0  0  0  0
   44.6581    9.9778   -0.2885 C   0  0  0  0  0  0  0  0  0  0  0  0
   45.9254    9.3885   -0.3533 C   0  0  0  0  0  0  0  0  0  0  0  0
   47.0672   10.0636    0.0933 C   0  0  0  0  0  0  0  0  0  0  0  0
   46.8861   11.3272    0.6762 C   0  0  0  0  0  0  0  0  0  0  0  0
   45.5896   15.1293    2.7218 C   0  0  0  0  0  0  0  0  0  0  0  0
   44.8022   15.6316    1.7010 C   0  0  0  0  0  0  0  0  0  0  0  0
   44.5237   14.4276    0.5064 S   0  0  0  0  0  0  0  0  0  0  0  0
   45.4728   13.2635    1.3281 C   0  0  0  0  0  0  0  0  0  0  0  0
   45.9975   13.7869    2.4876 C   0  0  0  0  0  0  0  0  0  0  0  0
   47.1414   12.8547    3.6787 Br  0  0  0  0  0  0  0  0  0  0  0  0
   44.2316   16.9551    1.5855 C   0  0  0  0  0  0  0  0  0  0  0  0
   44.7561   18.0227    1.8716 O   0  0  0  0  0  0  0  0  0  0  0  0
   42.9629   16.9535    1.1137 O   0  0  0  0  0  0  0  0  0  0  0  0
   42.5473   16.1441    0.8901 H   0  0  0  0  0  0  0  0  0  0  0  0
   45.9951   15.8888    3.7686 O   0  0  0  0  0  0  0  0  0  0  0  0
   47.3142   16.3966    3.5710 C   0  0  0  0  0  0  0  0  0  0  0  0
   46.7502   18.6136    4.4930 O   0  0  0  0  0  0  0  0  0  0  0  0
   47.5154   17.6724    4.3674 C   0  0  0  0  0  0  0  0  0  0  0  0
   48.7227   17.7029    4.9755 O   0  0  0  0  0  0  0  0  0  0  0  0
   49.3132   16.9815    4.8811 H   0  0  0  0  0  0  0  0  0  0  0  0
   48.3470    9.5045    0.0992 N   0  0  0  0  0  0  0  0  0  0  0  0
   48.8908    9.5357   -0.7209 H   0  0  0  0  0  0  0  0  0  0  0  0
   48.8972    8.8713    1.3033 C   0  0  0  0  0  0  0  0  0  0  0  0
   47.9479    7.7842    1.8370 C   0  0  0  0  0  0  0  0  0  0  0  0
   48.6806    6.5517    2.3514 C   0  0  0  0  0  0  0  0  0  0  0  0
   49.9129    6.9644    3.0344 N   0  0  0  0  0  0  0  0  0  0  0  0
   50.9107    7.6807    2.2125 C   0  0  0  0  0  0  0  0  0  0  0  0
   50.2703    8.2828    0.9648 C   0  0  0  0  0  0  0  0  0  0  0  0
   50.4323    6.1156    4.3905 S   0  0  0  0  0  0  0  0  0  0  0  0
   51.7133    6.6559    4.7991 O   0  0  0  0  0  0  0  0  0  0  0  0
   49.3200    6.1169    5.3210 O   0  0  0  0  0  0  0  0  0  0  0  0
   50.6380    4.4093    3.8458 C   0  0  0  0  0  0  0  0  0  0  0  0
   50.4268    3.4076    4.9472 C   0  0  0  0  0  0  0  0  0  0  0  0
   51.2982    3.3477    6.0440 C   0  0  0  0  0  0  0  0  0  0  0  0
   51.0874    2.4246    7.0700 C   0  0  0  0  0  0  0  0  0  0  0  0
   49.9954    1.5614    7.0190 C   0  0  0  0  0  0  0  0  0  0  0  0
   49.1099    1.6236    5.9457 C   0  0  0  0  0  0  0  0  0  0  0  0
   49.3207    2.5425    4.9165 C   0  0  0  0  0  0  0  0  0  0  0  0
 19 20  2  0
 20 21  1  0
 20 18  1  0
 18 17  1  0
 17  7  1  0
  7  8  2  0
  8 13  1  0
 13 14  2  0
 13 15  1  0
  8  9  1  0
  9 10  1  0
 10  1  1  0
  1  2  2  0
  2  3  1  0
  3  4  2  0
  4  5  1  0
  5 23  1  0
 23 25  1  0
 25 26  1  0
 26 27  1  0
 27 28  1  0
 28 31  1  0
 31 32  2  0
 31 33  2  0
 31 34  1  0
 34 35  1  0
 35 36  2  0
 36 37  1  0
 37 38  2  0
 38 39  1  0
 39 40  2  0
 28 29  1  0
 29 30  1  0
  5  6  2  0
 10 11  2  0
 11 12  1  0
 11  7  1  0
  6  1  1  0
 30 25  1  0
 40 35  1  0
 21 22  1  0
 15 16  1  0
 23 24  1  0
M  END
> <minimizedAffinity>
-8.60163

> <CNNscore>
0.8848693371

> <CNNaffinity>
6.7958793640

> <CNN_VS>
6.0134654045

> <CNNaffinity_variance>
0.0305801183

$$$$



 40 43  0  0  0  0  0  0  0  0999 V2000
   45.0557   12.6709    0.3526 C   0  0  0  0  0  0  0  0  0  0  0  0
   45.6498   11.4681    0.7415 C   0  0  0  0  0  0  0  0  0  0  0  0
   45.5884   10.3623   -0.1012 C   0  0  0  0  0  0  0  0  0  0  0  0
   44.9166   10.4492   -1.3253 C   0  0  0  0  0  0  0  0  0  0  0  0
   44.2759   11.6282   -1.7235 C   0  0  0  0  0  0  0  0  0  0  0  0
   44.3928   12.7449   -0.8818 C   0  0  0  0  0  0  0  0  0  0  0  0
   45.5972   15.3223    2.9621 C   0  0  0  0  0  0  0  0  0  0  0  0
   44.8464   16.1403    2.1365 C   0  0  0  0  0  0  0  0  0  0  0  0
   44.3335   15.2797    0.7400 S   0  0  0  0  0  0  0  0  0  0  0  0
   45.1351   13.8446    1.2185 C   0  0  0  0  0  0  0  0  0  0  0  0
   45.7873   14.0222    2.4172 C   0  0  0  0  0  0  0  0  0  0  0  0
   46.8337   12.7029    3.2891 Br  0  0  0  0  0  0  0  0  0  0  0  0
   44.4762   17.5217    2.3498 C   0  0  0  0  0  0  0  0  0  0  0  0
   43.3938   18.0479    2.1300 O   0  0  0  0  0  0  0  0  0  0  0  0
   45.4864   18.2790    2.8376 O   0  0  0  0  0  0  0  0  0  0  0  0
   46.3213   17.8908    3.0112 H   0  0  0  0  0  0  0  0  0  0  0  0
   46.1618   15.7691    4.1105 O   0  0  0  0  0  0  0  0  0  0  0  0
   47.5081   16.1953    3.9043 C   0  0  0  0  0  0  0  0  0  0  0  0
   48.8426   18.0690    4.7941 O   0  0  0  0  0  0  0  0  0  0  0  0
   47.8088   17.4242    4.7420 C   0  0  0  0  0  0  0  0  0  0  0  0
   46.7552   17.7815    5.5105 O   0  0  0  0  0  0  0  0  0  0  0  0
   45.9594   17.2884    5.4731 H   0  0  0  0  0  0  0  0  0  0  0  0
   43.6356   11.7859   -2.9546 N   0  0  0  0  0  0  0  0  0  0  0  0
   43.2271   12.6533   -3.1782 H   0  0  0  0  0  0  0  0  0  0  0  0
   43.5595   10.6847   -3.9216 C   0  0  0  0  0  0  0  0  0  0  0  0
   42.1938   10.6671   -4.6302 C   0  0  0  0  0  0  0  0  0  0  0  0
   42.2937   10.3230   -6.1109 C   0  0  0  0  0  0  0  0  0  0  0  0
   43.3267    9.2983   -6.3066 N   0  0  0  0  0  0  0  0  0  0  0  0
   44.7019    9.6685   -5.9117 C   0  0  0  0  0  0  0  0  0  0  0  0
   44.7003   10.8390   -4.9322 C   0  0  0  0  0  0  0  0  0  0  0  0
   43.1070    8.1145   -7.4811 S   0  0  0  0  0  0  0  0  0  0  0  0
   43.9512    8.4384   -8.6134 O   0  0  0  0  0  0  0  0  0  0  0  0
   43.2633    6.8399   -6.8073 O   0  0  0  0  0  0  0  0  0  0  0  0
   41.3734    8.2255   -7.9638 C   0  0  0  0  0  0  0  0  0  0  0  0
   40.5090    7.1849   -7.3072 C   0  0  0  0  0  0  0  0  0  0  0  0
   40.0630    7.3463   -5.9877 C   0  0  0  0  0  0  0  0  0  0  0  0
   39.2488    6.3829   -5.3895 C   0  0  0  0  0  0  0  0  0  0  0  0
   38.8589    5.2549   -6.1077 C   0  0  0  0  0  0  0  0  0  0  0  0
   39.2775    5.0913   -7.4260 C   0  0  0  0  0  0  0  0  0  0  0  0
   40.0951    6.0509   -8.0250 C   0  0  0  0  0  0  0  0  0  0  0  0
 19 20  2  0
 20 21  1  0
 20 18  1  0
 18 17  1  0
 17  7  1  0
  7  8  2  0
  8 13  1  0
 13 14  2  0
 13 15  1  0
  8  9  1  0
  9 10  1  0
 10  1  1  0
  1  2  2  0
  2  3  1  0
  3  4  2  0
  4  5  1  0
  5 23  1  0
 23 25  1  0
 25 26  1  0
 26 27  1  0
 27 28  1  0
 28 31  1  0
 31 32  2  0
 31 33  2  0
 31 34  1  0
 34 35  1  0
 35 36  2  0
 36 37  1  0
 37 38  2  0
 38 39  1  0
 39 40  2  0
 28 29  1  0
 29 30  1  0
  5  6  2  0
 10 11  2  0
 11 12  1  0
 11  7  1  0
  6  1  1  0
 30 25  1  0
 40 35  1  0
 21 22  1  0
 15 16  1  0
 23 24  1  0
M  END
> <minimizedAffinity>
-6.78555

> <CNNscore>
0.8122119904

> <CNNaffinity>
6.5117163658

> <CNN_VS>
5.2888941765

> <CNNaffinity_variance>
0.0223193001

$$$$



 40 43  0  0  0  0  0  0  0  0999 V2000
   45.5746   12.1020    0.3758 C   0  0  0  0  0  0  0  0  0  0  0  0
   44.4506   11.3633   -0.0010 C   0  0  0  0  0  0  0  0  0  0  0  0
   44.6111   10.1448   -0.6538 C   0  0  0  0  0  0  0  0  0  0  0  0
   45.8936    9.6705   -0.9496 C   0  0  0  0  0  0  0  0  0  0  0  0
   47.0373   10.4079   -0.6221 C   0  0  0  0  0  0  0  0  0  0  0  0
   46.8545   11.6093    0.0798 C   0  0  0  0  0  0  0  0  0  0  0  0
   45.5137   15.0958    2.6488 C   0  0  0  0  0  0  0  0  0  0  0  0
   44.7514   15.6976    1.6634 C   0  0  0  0  0  0  0  0  0  0  0  0
   44.4931   14.6135    0.3549 S   0  0  0  0  0  0  0  0  0  0  0  0
   45.4182   13.3705    1.0830 C   0  0  0  0  0  0  0  0  0  0  0  0
   45.9201   13.7786    2.2977 C   0  0  0  0  0  0  0  0  0  0  0  0
   47.0329   12.7303    3.4195 Br  0  0  0  0  0  0  0  0  0  0  0  0
   44.1900   17.0301    1.6613 C   0  0  0  0  0  0  0  0  0  0  0  0
   44.7495   18.0772    1.9566 O   0  0  0  0  0  0  0  0  0  0  0  0
   42.8873   17.0632    1.2952 O   0  0  0  0  0  0  0  0  0  0  0  0
   42.4447   16.2698    1.0661 H   0  0  0  0  0  0  0  0  0  0  0  0
   45.9001   15.7504    3.7710 O   0  0  0  0  0  0  0  0  0  0  0  0
   47.1958   16.3301    3.6229 C   0  0  0  0  0  0  0  0  0  0  0  0
   48.3369   17.9647    5.0752 O   0  0  0  0  0  0  0  0  0  0  0  0
   47.3361   17.5486    4.5160 C   0  0  0  0  0  0  0  0  0  0  0  0
   46.1597   18.1959    4.6756 O   0  0  0  0  0  0  0  0  0  0  0  0
   45.3888   17.8790    4.2475 H   0  0  0  0  0  0  0  0  0  0  0  0
   48.3407    9.9597   -0.8475 N   0  0  0  0  0  0  0  0  0  0  0  0
   48.6829    9.9154   -1.7695 H   0  0  0  0  0  0  0  0  0  0  0  0
   49.2104    9.5536    0.2626 C   0  0  0  0  0  0  0  0  0  0  0  0
   48.3821    9.1969    1.5093 C   0  0  0  0  0  0  0  0  0  0  0  0
   48.9286    7.9920    2.2646 C   0  0  0  0  0  0  0  0  0  0  0  0
   50.3962    8.0256    2.2434 N   0  0  0  0  0  0  0  0  0  0  0  0
   51.0353    7.9580    0.9124 C   0  0  0  0  0  0  0  0  0  0  0  0
   50.0610    8.3629   -0.1904 C   0  0  0  0  0  0  0  0  0  0  0  0
   51.2564    7.4954    3.5881 S   0  0  0  0  0  0  0  0  0  0  0  0
   51.9978    8.6197    4.1229 O   0  0  0  0  0  0  0  0  0  0  0  0
   50.3046    6.7948    4.4286 O   0  0  0  0  0  0  0  0  0  0  0  0
   52.4034    6.2492    2.9703 C   0  0  0  0  0  0  0  0  0  0  0  0
   52.6283    5.1209    3.9385 C   0  0  0  0  0  0  0  0  0  0  0  0
   53.2843    3.9479    3.5388 C   0  0  0  0  0  0  0  0  0  0  0  0
   53.5023    2.9104    4.4472 C   0  0  0  0  0  0  0  0  0  0  0  0
   53.0808    3.0392    5.7685 C   0  0  0  0  0  0  0  0  0  0  0  0
   52.4461    4.2071    6.1848 C   0  0  0  0  0  0  0  0  0  0  0  0
   52.2231    5.2441    5.2776 C   0  0  0  0  0  0  0  0  0  0  0  0
 19 20  2  0
 20 21  1  0
 20 18  1  0
 18 17  1  0
 17  7  1  0
  7  8  2  0
  8 13  1  0
 13 14  2  0
 13 15  1  0
  8  9  1  0
  9 10  1  0
 10  1  1  0
  1  2  2  0
  2  3  1  0
  3  4  2  0
  4  5  1  0
  5 23  1  0
 23 25  1  0
 25 26  1  0
 26 27  1  0
 27 28  1  0
 28 31  1  0
 31 32  2  0
 31 33  2  0
 31 34  1  0
 34 35  1  0
 35 36  2  0
 36 37  1  0
 37 38  2  0
 38 39  1  0
 39 40  2  0
 28 29  1  0
 29 30  1  0
  5  6  2  0
 10 11  2  0
 11 12  1  0
 11  7  1  0
  6  1  1  0
 30 25  1  0
 40 35  1  0
 21 22  1  0
 15 16  1  0
 23 24  1  0
M  END
> <minimizedAffinity>
-8.76680

> <CNNscore>
0.8037730455

> <CNNaffinity>
6.8183674812

> <CNN_VS>
5.4804201126

> <CNNaffinity_variance>
0.1025546119

$$$$



 40 43  0  0  0  0  0  0  0  0999 V2000
   44.7287   12.8913    0.2915 C   0  0  0  0  0  0  0  0  0  0  0  0
   44.6979   11.5481    0.6735 C   0  0  0  0  0  0  0  0  0  0  0  0
   44.4830   10.5617   -0.2843 C   0  0  0  0  0  0  0  0  0  0  0  0
   44.2787   10.9152   -1.6224 C   0  0  0  0  0  0  0  0  0  0  0  0
   44.2623   12.2546   -2.0285 C   0  0  0  0  0  0  0  0  0  0  0  0
   44.5305   13.2297   -1.0556 C   0  0  0  0  0  0  0  0  0  0  0  0
   45.7427   15.1482    3.1219 C   0  0  0  0  0  0  0  0  0  0  0  0
   44.9140   16.0863    2.5324 C   0  0  0  0  0  0  0  0  0  0  0  0
   44.1727   15.4358    1.1248 S   0  0  0  0  0  0  0  0  0  0  0  0
   44.9776   13.9332    1.2846 C   0  0  0  0  0  0  0  0  0  0  0  0
   45.8013   13.9318    2.3870 C   0  0  0  0  0  0  0  0  0  0  0  0
   46.9093   12.4851    2.9117 Br  0  0  0  0  0  0  0  0  0  0  0  0
   44.6329   17.4322    2.9796 C   0  0  0  0  0  0  0  0  0  0  0  0
   44.4746   18.4309    2.2910 O   0  0  0  0  0  0  0  0  0  0  0  0
   44.5605   17.5463    4.3264 O   0  0  0  0  0  0  0  0  0  0  0  0
   44.6794   16.7907    4.8677 H   0  0  0  0  0  0  0  0  0  0  0  0
   46.4833   15.4219    4.2236 O   0  0  0  0  0  0  0  0  0  0  0  0
   47.6978   16.0924    3.8886 C   0  0  0  0  0  0  0  0  0  0  0  0
   47.0671   17.8428    5.5077 O   0  0  0  0  0  0  0  0  0  0  0  0
   47.8683   17.3365    4.7402 C   0  0  0  0  0  0  0  0  0  0  0  0
   49.0810   17.9077    4.5626 O   0  0  0  0  0  0  0  0  0  0  0  0
   49.6990   17.5214    3.9737 H   0  0  0  0  0  0  0  0  0  0  0  0
   44.1140   12.6614   -3.3562 N   0  0  0  0  0  0  0  0  0  0  0  0
   44.0527   11.9810   -4.0652 H   0  0  0  0  0  0  0  0  0  0  0  0
   44.0475   14.0826   -3.7158 C   0  0  0  0  0  0  0  0  0  0  0  0
   42.8477   14.7669   -3.0375 C   0  0  0  0  0  0  0  0  0  0  0  0
   43.1621   16.1744   -2.5468 C   0  0  0  0  0  0  0  0  0  0  0  0
   44.0436   16.8435   -3.5114 N   0  0  0  0  0  0  0  0  0  0  0  0
   45.3640   16.2191   -3.7372 C   0  0  0  0  0  0  0  0  0  0  0  0
   45.3633   14.7537   -3.3103 C   0  0  0  0  0  0  0  0  0  0  0  0
   43.8628   18.4917   -3.7939 S   0  0  0  0  0  0  0  0  0  0  0  0
   42.4563   18.7613   -4.0148 O   0  0  0  0  0  0  0  0  0  0  0  0
   44.5657   19.1673   -2.7203 O   0  0  0  0  0  0  0  0  0  0  0  0
   44.7910   18.8306   -5.3019 C   0  0  0  0  0  0  0  0  0  0  0  0
   46.1870   19.3237   -5.0387 C   0  0  0  0  0  0  0  0  0  0  0  0
   46.8611   20.1155   -5.9793 C   0  0  0  0  0  0  0  0  0  0  0  0
   48.1516   20.5818   -5.7217 C   0  0  0  0  0  0  0  0  0  0  0  0
   48.7771   20.2748   -4.5156 C   0  0  0  0  0  0  0  0  0  0  0  0
   48.1116   19.5063   -3.5634 C   0  0  0  0  0  0  0  0  0  0  0  0
   46.8231   19.0353   -3.8202 C   0  0  0  0  0  0  0  0  0  0  0  0
 19 20  2  0
 20 21  1  0
 20 18  1  0
 18 17  1  0
 17  7  1  0
  7  8  2  0
  8 13  1  0
 13 14  2  0
 13 15  1  0
  8  9  1  0
  9 10  1  0
 10  1  1  0
  1  2  2  0
  2  3  1  0
  3  4  2  0
  4  5  1  0
  5 23  1  0
 23 25  1  0
 25 26  1  0
 26 27  1  0
 27 28  1  0
 28 31  1  0
 31 32  2  0
 31 33  2  0
 31 34  1  0
 34 35  1  0
 35 36  2  0
 36 37  1  0
 37 38  2  0
 38 39  1  0
 39 40  2  0
 28 29  1  0
 29 30  1  0
  5  6  2  0
 10 11  2  0
 11 12  1  0
 11  7  1  0
  6  1  1  0
 30 25  1  0
 40 35  1  0
 21 22  1  0
 15 16  1  0
 23 24  1  0
M  END
> <minimizedAffinity>
-8.71616

> <CNNscore>
0.7724932432

> <CNNaffinity>
6.5596861839

> <CNN_VS>
5.0673131943

> <CNNaffinity_variance>
0.1419614404

$$$$



 40 43  0  0  0  0  0  0  0  0999 V2000
   44.6976   13.0572    0.1651 C   0  0  0  0  0  0  0  0  0  0  0  0
   44.8239   11.7100    0.5115 C   0  0  0  0  0  0  0  0  0  0  0  0
   44.6188   10.7264   -0.4513 C   0  0  0  0  0  0  0  0  0  0  0  0
   44.2676   11.0849   -1.7573 C   0  0  0  0  0  0  0  0  0  0  0  0
   44.0928   12.4243   -2.1238 C   0  0  0  0  0  0  0  0  0  0  0  0
   44.3532   13.4014   -1.1507 C   0  0  0  0  0  0  0  0  0  0  0  0
   45.6826   15.3149    3.0051 C   0  0  0  0  0  0  0  0  0  0  0  0
   44.8496   16.2482    2.4141 C   0  0  0  0  0  0  0  0  0  0  0  0
   44.1192   15.5956    1.0018 S   0  0  0  0  0  0  0  0  0  0  0  0
   44.9345   14.0986    1.1617 C   0  0  0  0  0  0  0  0  0  0  0  0
   45.7535   14.1006    2.2676 C   0  0  0  0  0  0  0  0  0  0  0  0
   46.8698   12.6609    2.7938 Br  0  0  0  0  0  0  0  0  0  0  0  0
   44.5566   17.5910    2.8633 C   0  0  0  0  0  0  0  0  0  0  0  0
   44.3652   18.5842    2.1752 O   0  0  0  0  0  0  0  0  0  0  0  0
   44.5144   17.7090    4.2111 O   0  0  0  0  0  0  0  0  0  0  0  0
   44.6590   16.9576    4.7519 H   0  0  0  0  0  0  0  0  0  0  0  0
   46.4164   15.5914    4.1107 O   0  0  0  0  0  0  0  0  0  0  0  0
   47.6208   16.2837    3.7838 C   0  0  0  0  0  0  0  0  0  0  0  0
   48.8044   18.1886    4.8105 O   0  0  0  0  0  0  0  0  0  0  0  0
   47.8472   17.4357    4.7451 C   0  0  0  0  0  0  0  0  0  0  0  0
   46.8227   17.5750    5.6164 O   0  0  0  0  0  0  0  0  0  0  0  0
   46.0857   16.9983    5.5690 H   0  0  0  0  0  0  0  0  0  0  0  0
   43.7931   12.8409   -3.4227 N   0  0  0  0  0  0  0  0  0  0  0  0
   43.0616   12.4013   -3.9135 H   0  0  0  0  0  0  0  0  0  0  0  0
   44.5467   13.9207   -4.0705 C   0  0  0  0  0  0  0  0  0  0  0  0
   45.4477   14.6483   -3.0574 C   0  0  0  0  0  0  0  0  0  0  0  0
   46.8080   15.0249   -3.6307 C   0  0  0  0  0  0  0  0  0  0  0  0
   46.6509   15.4430   -5.0292 N   0  0  0  0  0  0  0  0  0  0  0  0
   46.1163   14.4287   -5.9617 C   0  0  0  0  0  0  0  0  0  0  0  0
   45.3752   13.3245   -5.2127 C   0  0  0  0  0  0  0  0  0  0  0  0
   47.6140   16.6810   -5.6366 S   0  0  0  0  0  0  0  0  0  0  0  0
   48.8773   16.1076   -6.0551 O   0  0  0  0  0  0  0  0  0  0  0  0
   46.7960   17.3989   -6.5952 O   0  0  0  0  0  0  0  0  0  0  0  0
   47.8855   17.8073   -4.2552 C   0  0  0  0  0  0  0  0  0  0  0  0
   49.2922   17.7650   -3.7255 C   0  0  0  0  0  0  0  0  0  0  0  0
   49.9444   16.5428   -3.5087 C   0  0  0  0  0  0  0  0  0  0  0  0
   51.2557   16.5118   -3.0305 C   0  0  0  0  0  0  0  0  0  0  0  0
   51.9350   17.7012   -2.7778 C   0  0  0  0  0  0  0  0  0  0  0  0
   51.3068   18.9228   -3.0081 C   0  0  0  0  0  0  0  0  0  0  0  0
   49.9944   18.9567   -3.4821 C   0  0  0  0  0  0  0  0  0  0  0  0
 19 20  2  0
 20 21  1  0
 20 18  1  0
 18 17  1  0
 17  7  1  0
  7  8  2  0
  8 13  1  0
 13 14  2  0
 13 15  1  0
  8  9  1  0
  9 10  1  0
 10  1  1  0
  1  2  2  0
  2  3  1  0
  3  4  2  0
  4  5  1  0
  5 23  1  0
 23 25  1  0
 25 26  1  0
 26 27  1  0
 27 28  1  0
 28 31  1  0
 31 32  2  0
 31 33  2  0
 31 34  1  0
 34 35  1  0
 35 36  2  0
 36 37  1  0
 37 38  2  0
 38 39  1  0
 39 40  2  0
 28 29  1  0
 29 30  1  0
  5  6  2  0
 10 11  2  0
 11 12  1  0
 11  7  1  0
  6  1  1  0
 30 25  1  0
 40 35  1  0
 21 22  1  0
 15 16  1  0
 23 24  1  0
M  END
> <minimizedAffinity>
-8.34535

> <CNNscore>
0.7425175905

> <CNNaffinity>
6.4019217491

> <CNN_VS>
4.7535395622

> <CNNaffinity_variance>
0.2458804995

$$$$



 40 43  0  0  0  0  0  0  0  0999 V2000
   44.9347   13.0219    0.2088 C   0  0  0  0  0  0  0  0  0  0  0  0
   44.6681   13.3395   -1.1250 C   0  0  0  0  0  0  0  0  0  0  0  0
   44.5191   12.3211   -2.0617 C   0  0  0  0  0  0  0  0  0  0  0  0
   44.6557   10.9842   -1.6727 C   0  0  0  0  0  0  0  0  0  0  0  0
   44.9640   10.6366   -0.3524 C   0  0  0  0  0  0  0  0  0  0  0  0
   45.0605   11.6762    0.5853 C   0  0  0  0  0  0  0  0  0  0  0  0
   45.6548   15.3460    3.0747 C   0  0  0  0  0  0  0  0  0  0  0  0
   44.8219   16.2385    2.4236 C   0  0  0  0  0  0  0  0  0  0  0  0
   44.2049   15.5425    0.9782 S   0  0  0  0  0  0  0  0  0  0  0  0
   45.0689   14.0819    1.2049 C   0  0  0  0  0  0  0  0  0  0  0  0
   45.8190   14.1284    2.3577 C   0  0  0  0  0  0  0  0  0  0  0  0
   46.9587   12.7410    2.9674 Br  0  0  0  0  0  0  0  0  0  0  0  0
   44.4484   17.5724    2.8379 C   0  0  0  0  0  0  0  0  0  0  0  0
   44.2523   18.5485    2.1268 O   0  0  0  0  0  0  0  0  0  0  0  0
   44.3288   17.7041    4.1797 O   0  0  0  0  0  0  0  0  0  0  0  0
   44.4758   16.9659    4.7378 H   0  0  0  0  0  0  0  0  0  0  0  0
   46.3089   15.6633    4.2187 O   0  0  0  0  0  0  0  0  0  0  0  0
   47.5408   16.3329    3.9526 C   0  0  0  0  0  0  0  0  0  0  0  0
   48.6981   18.2195    5.0411 O   0  0  0  0  0  0  0  0  0  0  0  0
   47.7156   17.5128    4.8905 C   0  0  0  0  0  0  0  0  0  0  0  0
   46.6055   17.7403    5.6281 O   0  0  0  0  0  0  0  0  0  0  0  0
   45.8489   17.1993    5.5150 H   0  0  0  0  0  0  0  0  0  0  0  0
   45.0614    9.3193    0.1010 N   0  0  0  0  0  0  0  0  0  0  0  0
   44.2551    8.7546    0.1193 H   0  0  0  0  0  0  0  0  0  0  0  0
   46.3414    8.7599    0.5506 C   0  0  0  0  0  0  0  0  0  0  0  0
   47.1864    8.2870   -0.6453 C   0  0  0  0  0  0  0  0  0  0  0  0
   48.6707    8.5896   -0.4844 C   0  0  0  0  0  0  0  0  0  0  0  0
   49.0610    8.3941    0.9173 N   0  0  0  0  0  0  0  0  0  0  0  0
   48.3902    9.2571    1.9121 C   0  0  0  0  0  0  0  0  0  0  0  0
   47.0855    9.8258    1.3610 C   0  0  0  0  0  0  0  0  0  0  0  0
   50.5810    7.7687    1.2743 S   0  0  0  0  0  0  0  0  0  0  0  0
   51.3818    7.8092    0.0673 O   0  0  0  0  0  0  0  0  0  0  0  0
   51.0361    8.4617    2.4642 O   0  0  0  0  0  0  0  0  0  0  0  0
   50.2993    6.0554    1.7598 C   0  0  0  0  0  0  0  0  0  0  0  0
   51.1299    5.6309    2.9392 C   0  0  0  0  0  0  0  0  0  0  0  0
   52.5036    5.3855    2.8026 C   0  0  0  0  0  0  0  0  0  0  0  0
   53.2711    5.0057    3.9052 C   0  0  0  0  0  0  0  0  0  0  0  0
   52.6779    4.8815    5.1593 C   0  0  0  0  0  0  0  0  0  0  0  0
   51.3184    5.1421    5.3140 C   0  0  0  0  0  0  0  0  0  0  0  0
   50.5479    5.5177    4.2125 C   0  0  0  0  0  0  0  0  0  0  0  0
 19 20  2  0
 20 21  1  0
 20 18  1  0
 18 17  1  0
 17  7  1  0
  7  8  2  0
  8 13  1  0
 13 14  2  0
 13 15  1  0
  8  9  1  0
  9 10  1  0
 10  1  1  0
  1  2  2  0
  2  3  1  0
  3  4  2  0
  4  5  1  0
  5 23  1  0
 23 25  1  0
 25 26  1  0
 26 27  1  0
 27 28  1  0
 28 31  1  0
 31 32  2  0
 31 33  2  0
 31 34  1  0
 34 35  1  0
 35 36  2  0
 36 37  1  0
 37 38  2  0
 38 39  1  0
 39 40  2  0
 28 29  1  0
 29 30  1  0
  5  6  2  0
 10 11  2  0
 11 12  1  0
 11  7  1  0
  6  1  1  0
 30 25  1  0
 40 35  1  0
 21 22  1  0
 15 16  1  0
 23 24  1  0
M  END
> <minimizedAffinity>
-9.09114

> <CNNscore>
0.7245510221

> <CNNaffinity>
6.6818861961

> <CNN_VS>
4.8413672447

> <CNNaffinity_variance>
0.1284745932

$$$$



 40 43  0  0  0  0  0  0  0  0999 V2000
   45.5482   12.3258    0.1395 C   0  0  0  0  0  0  0  0  0  0  0  0
   44.6389   11.2717    0.2533 C   0  0  0  0  0  0  0  0  0  0  0  0
   44.7812   10.1458   -0.5521 C   0  0  0  0  0  0  0  0  0  0  0  0
   45.8200   10.0782   -1.4869 C   0  0  0  0  0  0  0  0  0  0  0  0
   46.7214   11.1359   -1.6531 C   0  0  0  0  0  0  0  0  0  0  0  0
   46.5898   12.2398   -0.7967 C   0  0  0  0  0  0  0  0  0  0  0  0
   45.5790   15.0287    2.7522 C   0  0  0  0  0  0  0  0  0  0  0  0
   44.7897   15.7453    1.8702 C   0  0  0  0  0  0  0  0  0  0  0  0
   44.4830   14.8250    0.4514 S   0  0  0  0  0  0  0  0  0  0  0  0
   45.4227   13.5018    0.9968 C   0  0  0  0  0  0  0  0  0  0  0  0
   45.9654   13.7614    2.2345 C   0  0  0  0  0  0  0  0  0  0  0  0
   47.1064   12.5843    3.1875 Br  0  0  0  0  0  0  0  0  0  0  0  0
   44.2372   17.0701    2.0442 C   0  0  0  0  0  0  0  0  0  0  0  0
   44.7288   18.0109    2.6525 O   0  0  0  0  0  0  0  0  0  0  0  0
   43.0280   17.2289    1.4571 O   0  0  0  0  0  0  0  0  0  0  0  0
   42.6382   16.5178    0.9877 H   0  0  0  0  0  0  0  0  0  0  0  0
   46.0049   15.5444    3.9311 O   0  0  0  0  0  0  0  0  0  0  0  0
   47.3060   16.1194    3.8149 C   0  0  0  0  0  0  0  0  0  0  0  0
   46.6199   17.7629    5.5212 O   0  0  0  0  0  0  0  0  0  0  0  0
   47.4567   17.2865    4.7728 C   0  0  0  0  0  0  0  0  0  0  0  0
   48.6974   17.8219    4.7250 O   0  0  0  0  0  0  0  0  0  0  0  0
   49.3427   17.4584    4.1512 H   0  0  0  0  0  0  0  0  0  0  0  0
   47.8051   11.1011   -2.5334 N   0  0  0  0  0  0  0  0  0  0  0  0
   47.6528   10.8645   -3.4768 H   0  0  0  0  0  0  0  0  0  0  0  0
   49.1662   11.4103   -2.0802 C   0  0  0  0  0  0  0  0  0  0  0  0
   50.1392   10.2753   -2.4445 C   0  0  0  0  0  0  0  0  0  0  0  0
   51.5016   10.7806   -2.9022 C   0  0  0  0  0  0  0  0  0  0  0  0
   51.8804   11.9551   -2.1069 N   0  0  0  0  0  0  0  0  0  0  0  0
   50.9895   13.1302   -2.2059 C   0  0  0  0  0  0  0  0  0  0  0  0
   49.6056   12.7342   -2.7132 C   0  0  0  0  0  0  0  0  0  0  0  0
   53.4933   12.1882   -1.6905 S   0  0  0  0  0  0  0  0  0  0  0  0
   53.9793   10.9743   -1.0662 O   0  0  0  0  0  0  0  0  0  0  0  0
   54.1495   12.6999   -2.8783 O   0  0  0  0  0  0  0  0  0  0  0  0
   53.4952   13.5326   -0.4892 C   0  0  0  0  0  0  0  0  0  0  0  0
   54.8718   14.0621   -0.1966 C   0  0  0  0  0  0  0  0  0  0  0  0
   55.2556   15.3437   -0.6166 C   0  0  0  0  0  0  0  0  0  0  0  0
   56.5306   15.8341   -0.3286 C   0  0  0  0  0  0  0  0  0  0  0  0
   57.4310   15.0557    0.3949 C   0  0  0  0  0  0  0  0  0  0  0  0
   57.0564   13.7889    0.8362 C   0  0  0  0  0  0  0  0  0  0  0  0
   55.7839   13.2944    0.5460 C   0  0  0  0  0  0  0  0  0  0  0  0
 19 20  2  0
 20 21  1  0
 20 18  1  0
 18 17  1  0
 17  7  1  0
  7  8  2  0
  8 13  1  0
 13 14  2  0
 13 15  1  0
  8  9  1  0
  9 10  1  0
 10  1  1  0
  1  2  2  0
  2  3  1  0
  3  4  2  0
  4  5  1  0
  5 23  1  0
 23 25  1  0
 25 26  1  0
 26 27  1  0
 27 28  1  0
 28 31  1  0
 31 32  2  0
 31 33  2  0
 31 34  1  0
 34 35  1  0
 35 36  2  0
 36 37  1  0
 37 38  2  0
 38 39  1  0
 39 40  2  0
 28 29  1  0
 29 30  1  0
  5  6  2  0
 10 11  2  0
 11 12  1  0
 11  7  1  0
  6  1  1  0
 30 25  1  0
 40 35  1  0
 21 22  1  0
 15 16  1  0
 23 24  1  0
M  END
> <minimizedAffinity>
-8.01608

> <CNNscore>
0.7150635719

> <CNNaffinity>
6.7178359032

> <CNN_VS>
4.8036799431

> <CNNaffinity_variance>
0.0242597628

$$$$



 40 43  0  0  0  0  0  0  0  0999 V2000
   47.1941   11.9415    1.2404 C   0  0  0  0  0  0  0  0  0  0  0  0
   48.0654   12.2017    0.1802 C   0  0  0  0  0  0  0  0  0  0  0  0
   48.6950   11.1461   -0.4725 C   0  0  0  0  0  0  0  0  0  0  0  0
   48.4715    9.8295   -0.0552 C   0  0  0  0  0  0  0  0  0  0  0  0
   47.6368    9.5403    1.0305 C   0  0  0  0  0  0  0  0  0  0  0  0
   46.9736   10.6154    1.6419 C   0  0  0  0  0  0  0  0  0  0  0  0
   45.0825   14.8030    2.4593 C   0  0  0  0  0  0  0  0  0  0  0  0
   45.8526   14.7454    3.6073 C   0  0  0  0  0  0  0  0  0  0  0  0
   47.0420   13.5119    3.4739 S   0  0  0  0  0  0  0  0  0  0  0  0
   46.5093   13.0403    1.9167 C   0  0  0  0  0  0  0  0  0  0  0  0
   45.4398   13.8051    1.5106 C   0  0  0  0  0  0  0  0  0  0  0  0
   44.5141   13.5917   -0.1305 Br  0  0  0  0  0  0  0  0  0  0  0  0
   45.7581   15.5782    4.7855 C   0  0  0  0  0  0  0  0  0  0  0  0
   46.6590   15.8978    5.5490 O   0  0  0  0  0  0  0  0  0  0  0  0
   44.5019   16.0169    5.0335 O   0  0  0  0  0  0  0  0  0  0  0  0
   43.8010   15.7808    4.4581 H   0  0  0  0  0  0  0  0  0  0  0  0
   44.0422   15.6612    2.3235 O   0  0  0  0  0  0  0  0  0  0  0  0
   44.4029   16.8086    1.5552 C   0  0  0  0  0  0  0  0  0  0  0  0
   45.6851   18.2518    3.0902 O   0  0  0  0  0  0  0  0  0  0  0  0
   44.6703   17.9928    2.4653 C   0  0  0  0  0  0  0  0  0  0  0  0
   43.5989   18.8126    2.5552 O   0  0  0  0  0  0  0  0  0  0  0  0
   42.8176   18.6167    2.0766 H   0  0  0  0  0  0  0  0  0  0  0  0
   47.3387    8.2443    1.4568 N   0  0  0  0  0  0  0  0  0  0  0  0
   46.4392    7.8782    1.2952 H   0  0  0  0  0  0  0  0  0  0  0  0
   48.3394    7.4171    2.1408 C   0  0  0  0  0  0  0  0  0  0  0  0
   49.7660    7.8625    1.7743 C   0  0  0  0  0  0  0  0  0  0  0  0
   50.7264    7.8219    2.9561 C   0  0  0  0  0  0  0  0  0  0  0  0
   50.4271    6.6513    3.7901 N   0  0  0  0  0  0  0  0  0  0  0  0
   49.0802    6.6046    4.3968 C   0  0  0  0  0  0  0  0  0  0  0  0
   48.1058    7.5128    3.6517 C   0  0  0  0  0  0  0  0  0  0  0  0
   51.6860    5.8222    4.5361 S   0  0  0  0  0  0  0  0  0  0  0  0
   52.2270    4.8711    3.5861 O   0  0  0  0  0  0  0  0  0  0  0  0
   52.5502    6.8322    5.1159 O   0  0  0  0  0  0  0  0  0  0  0  0
   50.9352    4.9409    5.9182 C   0  0  0  0  0  0  0  0  0  0  0  0
   51.3246    3.4896    5.9756 C   0  0  0  0  0  0  0  0  0  0  0  0
   52.5675    3.0967    6.4923 C   0  0  0  0  0  0  0  0  0  0  0  0
   52.9163    1.7463    6.5559 C   0  0  0  0  0  0  0  0  0  0  0  0
   52.0215    0.7728    6.1179 C   0  0  0  0  0  0  0  0  0  0  0  0
   50.7752    1.1473    5.6213 C   0  0  0  0  0  0  0  0  0  0  0  0
   50.4257    2.4968    5.5527 C   0  0  0  0  0  0  0  0  0  0  0  0
 19 20  2  0
 20 21  1  0
 20 18  1  0
 18 17  1  0
 17  7  1  0
  7  8  2  0
  8 13  1  0
 13 14  2  0
 13 15  1  0
  8  9  1  0
  9 10  1  0
 10  1  1  0
  1  2  2  0
  2  3  1  0
  3  4  2  0
  4  5  1  0
  5 23  1  0
 23 25  1  0
 25 26  1  0
 26 27  1  0
 27 28  1  0
 28 31  1  0
 31 32  2  0
 31 33  2  0
 31 34  1  0
 34 35  1  0
 35 36  2  0
 36 37  1  0
 37 38  2  0
 38 39  1  0
 39 40  2  0
 28 29  1  0
 29 30  1  0
  5  6  2  0
 10 11  2  0
 11 12  1  0
 11  7  1  0
  6  1  1  0
 30 25  1  0
 40 35  1  0
 21 22  1  0
 15 16  1  0
 23 24  1  0
M  END
> <minimizedAffinity>
-8.54875

> <CNNscore>
0.6762914062

> <CNNaffinity>
6.6679477692

> <CNN_VS>
4.5094757080

> <CNNaffinity_variance>
0.0255382415

$$$$



 40 43  0  0  0  0  0  0  0  0999 V2000
   45.8836   12.0292    1.1685 C   0  0  0  0  0  0  0  0  0  0  0  0
   44.8866   11.1978    0.6530 C   0  0  0  0  0  0  0  0  0  0  0  0
   45.1896    9.8823    0.3152 C   0  0  0  0  0  0  0  0  0  0  0  0
   46.4933    9.3996    0.4726 C   0  0  0  0  0  0  0  0  0  0  0  0
   47.5226   10.2208    0.9471 C   0  0  0  0  0  0  0  0  0  0  0  0
   47.1844   11.5283    1.3285 C   0  0  0  0  0  0  0  0  0  0  0  0
   45.4212   15.4482    2.6616 C   0  0  0  0  0  0  0  0  0  0  0  0
   44.6564   15.7196    1.5409 C   0  0  0  0  0  0  0  0  0  0  0  0
   44.5701   14.3387    0.5213 S   0  0  0  0  0  0  0  0  0  0  0  0
   45.5710   13.4044    1.5491 C   0  0  0  0  0  0  0  0  0  0  0  0
   45.9687   14.1355    2.6451 C   0  0  0  0  0  0  0  0  0  0  0  0
   47.1174   13.5011    4.0139 Br  0  0  0  0  0  0  0  0  0  0  0  0
   43.9715   16.9483    1.2066 C   0  0  0  0  0  0  0  0  0  0  0  0
   43.8703   17.9575    1.8907 O   0  0  0  0  0  0  0  0  0  0  0  0
   43.3796   16.9190   -0.0103 O   0  0  0  0  0  0  0  0  0  0  0  0
   43.4479   16.1534   -0.5462 H   0  0  0  0  0  0  0  0  0  0  0  0
   45.6853   16.3839    3.6060 O   0  0  0  0  0  0  0  0  0  0  0  0
   46.9686   16.9780    3.4143 C   0  0  0  0  0  0  0  0  0  0  0  0
   48.5821   17.9963    4.9774 O   0  0  0  0  0  0  0  0  0  0  0  0
   47.4584   17.6088    4.7044 C   0  0  0  0  0  0  0  0  0  0  0  0
   46.4719   17.7092    5.6237 O   0  0  0  0  0  0  0  0  0  0  0  0
   45.6073   17.4125    5.4174 H   0  0  0  0  0  0  0  0  0  0  0  0
   48.8279    9.7780    1.1714 N   0  0  0  0  0  0  0  0  0  0  0  0
   49.5776   10.4044    1.0492 H   0  0  0  0  0  0  0  0  0  0  0  0
   49.1046    8.3977    1.5858 C   0  0  0  0  0  0  0  0  0  0  0  0
   50.5313    7.9790    1.1895 C   0  0  0  0  0  0  0  0  0  0  0  0
   51.2203    7.1290    2.2496 C   0  0  0  0  0  0  0  0  0  0  0  0
   50.2428    6.2179    2.8577 N   0  0  0  0  0  0  0  0  0  0  0  0
   49.1059    6.8488    3.5604 C   0  0  0  0  0  0  0  0  0  0  0  0
   48.9016    8.2895    3.1002 C   0  0  0  0  0  0  0  0  0  0  0  0
   50.7223    4.6702    3.3092 S   0  0  0  0  0  0  0  0  0  0  0  0
   49.6448    3.7534    2.9963 O   0  0  0  0  0  0  0  0  0  0  0  0
   52.0345    4.4654    2.7265 O   0  0  0  0  0  0  0  0  0  0  0  0
   50.9636    4.7383    5.0947 C   0  0  0  0  0  0  0  0  0  0  0  0
   51.4322    3.4340    5.6780 C   0  0  0  0  0  0  0  0  0  0  0  0
   52.7983    3.1746    5.8589 C   0  0  0  0  0  0  0  0  0  0  0  0
   53.2253    1.9671    6.4145 C   0  0  0  0  0  0  0  0  0  0  0  0
   52.2918    1.0116    6.8095 C   0  0  0  0  0  0  0  0  0  0  0  0
   50.9309    1.2641    6.6548 C   0  0  0  0  0  0  0  0  0  0  0  0
   50.5014    2.4686    6.0956 C   0  0  0  0  0  0  0  0  0  0  0  0
 19 20  2  0
 20 21  1  0
 20 18  1  0
 18 17  1  0
 17  7  1  0
  7  8  2  0
  8 13  1  0
 13 14  2  0
 13 15  1  0
  8  9  1  0
  9 10  1  0
 10  1  1  0
  1  2  2  0
  2  3  1  0
  3  4  2  0
  4  5  1  0
  5 23  1  0
 23 25  1  0
 25 26  1  0
 26 27  1  0
 27 28  1  0
 28 31  1  0
 31 32  2  0
 31 33  2  0
 31 34  1  0
 34 35  1  0
 35 36  2  0
 36 37  1  0
 37 38  2  0
 38 39  1  0
 39 40  2  0
 28 29  1  0
 29 30  1  0
  5  6  2  0
 10 11  2  0
 11 12  1  0
 11  7  1  0
  6  1  1  0
 30 25  1  0
 40 35  1  0
 21 22  1  0
 15 16  1  0
 23 24  1  0
M  END
> <minimizedAffinity>
-8.75177

> <CNNscore>
0.6522675753

> <CNNaffinity>
6.5592899323

> <CNN_VS>
4.2784123421

> <CNNaffinity_variance>
0.1261866689

$$$$
