


 36 37  0  0  0  0  0  0  0  0999 V2000
  -25.6118    6.7580  -14.5561 N   0  0  0  0  0  0  0  0  0  0  0  0
  -26.4425    5.8574  -13.9443 C   0  0  0  0  0  0  0  0  0  0  0  0
  -26.2970    5.3250  -12.8464 O   0  0  0  0  0  0  0  0  0  0  0  0
  -25.8824    7.0391  -15.4600 H   0  0  0  0  0  0  0  0  0  0  0  0
  -24.3470    8.7506  -13.9357 C   0  0  0  0  0  0  0  0  0  0  0  0
  -23.1489    9.3705  -13.5524 C   0  0  0  0  0  0  0  0  0  0  0  0
  -22.0463    8.5898  -13.2232 C   0  0  0  0  0  0  0  0  0  0  0  0
  -20.4373    9.4195  -12.6892 Br  0  0  0  0  0  0  0  0  0  0  0  0
  -22.1199    7.2001  -13.2874 C   0  0  0  0  0  0  0  0  0  0  0  0
  -23.2983    6.5782  -13.7141 C   0  0  0  0  0  0  0  0  0  0  0  0
  -24.4161    7.3411  -14.0671 C   0  0  0  0  0  0  0  0  0  0  0  0
  -27.2541    9.8509   -9.6339 C   0  0  0  0  0  0  0  0  0  0  0  0
  -26.8514   10.5801  -10.9126 C   0  0  0  0  0  0  0  0  0  0  0  0
  -27.9476   11.5631  -11.3456 C   0  0  0  0  0  0  0  0  0  0  0  0
  -27.5669   12.2557  -12.6596 C   0  0  0  0  0  0  0  0  0  0  0  0
  -28.6813   13.1918  -13.1224 C   0  0  0  0  0  0  0  0  0  0  0  0
  -27.2411   11.2234  -13.7444 C   0  0  0  0  0  0  0  0  0  0  0  0
  -26.2341   10.2582  -13.3003 N   0  0  0  0  0  0  0  0  0  0  0  0
  -25.5187    9.5976  -14.3025 C   0  0  0  0  0  0  0  0  0  0  0  0
  -25.8007    9.6704  -15.5015 O   0  0  0  0  0  0  0  0  0  0  0  0
  -26.5564    9.5822  -12.0349 C   0  0  0  0  0  0  0  0  0  0  0  0
  -27.5811    5.3953  -14.8312 C   0  0  0  0  0  0  0  0  0  0  0  0
  -27.6152    3.8708  -14.9356 C   0  0  0  0  0  0  0  0  0  0  0  0
  -27.2920    3.2022  -16.2861 C   0  0  0  0  0  0  0  0  0  0  0  0
  -28.3631    2.1991  -16.9342 N   0  0  0  0  0  0  0  0  0  0  0  0
  -28.8080    2.7880  -18.2606 C   0  0  0  0  0  0  0  0  0  0  0  0
  -29.5658    2.1293  -15.9783 C   0  0  0  0  0  0  0  0  0  0  0  0
  -27.6237    0.8530  -16.9785 C   0  0  0  0  0  0  0  0  0  0  0  0
  -28.3262   -0.5415  -16.9093 N   0  0  0  0  0  0  0  0  0  0  0  0
  -27.3990   -1.5889  -17.5358 C   0  0  0  0  0  0  0  0  0  0  0  0
  -29.6662   -0.5568  -17.5919 C   0  0  0  0  0  0  0  0  0  0  0  0
  -28.4543   -0.8256  -15.3814 C   0  0  0  0  0  0  0  0  0  0  0  0
  -29.3815   -1.8835  -14.8042 N   0  0  0  0  0  0  0  0  0  0  0  0
  -30.7915   -1.3673  -14.4622 C   0  0  0  0  0  0  0  0  0  0  0  0
  -29.5016   -3.2028  -15.5575 C   0  0  0  0  0  0  0  0  0  0  0  0
  -28.7644   -2.2737  -13.4076 C   0  0  0  0  0  0  0  0  0  0  0  0
 13 12  1  0
 13 14  1  0
 14 15  1  0
 15 16  1  0
 15 17  1  0
 17 18  1  0
 18 19  1  0
 19 20  2  0
 19  5  1  0
  5  6  2  0
  6  7  1  0
  7  8  1  0
  7  9  2  0
  9 10  1  0
 10 11  2  0
 11  1  1  0
  1  2  1  0
  2  3  2  0
  2 22  1  0
 22 23  1  0
 23 24  1  0
 24 25  1  0
 25 26  1  0
 25 27  1  0
 25 28  1  0
 28 29  1  0
 29 30  1  0
 29 31  1  0
 29 32  1  0
 32 33  1  0
 33 34  1  0
 33 35  1  0
 33 36  1  0
 18 21  1  0
 21 13  1  0
 11  5  1  0
  1  4  1  0
M  CHG 1  25   1
M  CHG 1  29   1
M  CHG 1  33   1
M  END
> <minimizedAffinity>
-6.26486

> <CNNscore>
0.8877967000

> <CNNaffinity>
6.3298649788

> <CNN_VS>
5.6196331978

> <CNNaffinity_variance>
0.0718809888

$$$$



 36 37  0  0  0  0  0  0  0  0999 V2000
  -25.7048    6.8461  -14.2616 N   0  0  0  0  0  0  0  0  0  0  0  0
  -26.5664    6.0734  -13.5295 C   0  0  0  0  0  0  0  0  0  0  0  0
  -26.4243    5.6745  -12.3759 O   0  0  0  0  0  0  0  0  0  0  0  0
  -25.9803    7.0266  -15.1894 H   0  0  0  0  0  0  0  0  0  0  0  0
  -24.3502    8.8336  -13.8499 C   0  0  0  0  0  0  0  0  0  0  0  0
  -23.1172    9.4376  -13.5641 C   0  0  0  0  0  0  0  0  0  0  0  0
  -22.0279    8.6452  -13.2186 C   0  0  0  0  0  0  0  0  0  0  0  0
  -20.3714    9.4551  -12.8154 Br  0  0  0  0  0  0  0  0  0  0  0  0
  -22.1498    7.2583  -13.1706 C   0  0  0  0  0  0  0  0  0  0  0  0
  -23.3650    6.6483  -13.5004 C   0  0  0  0  0  0  0  0  0  0  0  0
  -24.4711    7.4216  -13.8676 C   0  0  0  0  0  0  0  0  0  0  0  0
  -27.3640    9.8886   -9.6107 C   0  0  0  0  0  0  0  0  0  0  0  0
  -26.9245   10.6335  -10.8681 C   0  0  0  0  0  0  0  0  0  0  0  0
  -28.0042   11.6280  -11.3158 C   0  0  0  0  0  0  0  0  0  0  0  0
  -27.5859   12.3368  -12.6095 C   0  0  0  0  0  0  0  0  0  0  0  0
  -28.6834   13.2849  -13.0881 C   0  0  0  0  0  0  0  0  0  0  0  0
  -27.2366   11.3181  -13.6998 C   0  0  0  0  0  0  0  0  0  0  0  0
  -26.2461   10.3417  -13.2430 N   0  0  0  0  0  0  0  0  0  0  0  0
  -25.5078    9.6916  -14.2354 C   0  0  0  0  0  0  0  0  0  0  0  0
  -25.7579    9.7825  -15.4402 O   0  0  0  0  0  0  0  0  0  0  0  0
  -26.6047    9.6498  -11.9962 C   0  0  0  0  0  0  0  0  0  0  0  0
  -27.7458    5.5653  -14.3343 C   0  0  0  0  0  0  0  0  0  0  0  0
  -28.9408    5.2627  -13.4307 C   0  0  0  0  0  0  0  0  0  0  0  0
  -29.0238    3.8941  -12.7270 C   0  0  0  0  0  0  0  0  0  0  0  0
  -30.3323    3.5374  -11.8702 N   0  0  0  0  0  0  0  0  0  0  0  0
  -31.0162    2.3570  -12.5359 C   0  0  0  0  0  0  0  0  0  0  0  0
  -31.2630    4.7606  -11.9201 C   0  0  0  0  0  0  0  0  0  0  0  0
  -29.7911    3.3224  -10.4482 C   0  0  0  0  0  0  0  0  0  0  0  0
  -30.5438    2.5334   -9.3285 N   0  0  0  0  0  0  0  0  0  0  0  0
  -31.9022    2.0816   -9.8761 C   0  0  0  0  0  0  0  0  0  0  0  0
  -30.7301    3.3363   -8.0704 C   0  0  0  0  0  0  0  0  0  0  0  0
  -29.6515    1.2781   -9.0845 C   0  0  0  0  0  0  0  0  0  0  0  0
  -30.2134   -0.0869   -8.7193 N   0  0  0  0  0  0  0  0  0  0  0  0
  -30.6800   -0.9202   -9.9273 C   0  0  0  0  0  0  0  0  0  0  0  0
  -29.3808   -0.9682   -7.7961 C   0  0  0  0  0  0  0  0  0  0  0  0
  -31.5374    0.1998   -7.9141 C   0  0  0  0  0  0  0  0  0  0  0  0
 13 12  1  0
 13 14  1  0
 14 15  1  0
 15 16  1  0
 15 17  1  0
 17 18  1  0
 18 19  1  0
 19 20  2  0
 19  5  1  0
  5  6  2  0
  6  7  1  0
  7  8  1  0
  7  9  2  0
  9 10  1  0
 10 11  2  0
 11  1  1  0
  1  2  1  0
  2  3  2  0
  2 22  1  0
 22 23  1  0
 23 24  1  0
 24 25  1  0
 25 26  1  0
 25 27  1  0
 25 28  1  0
 28 29  1  0
 29 30  1  0
 29 31  1  0
 29 32  1  0
 32 33  1  0
 33 34  1  0
 33 35  1  0
 33 36  1  0
 18 21  1  0
 21 13  1  0
 11  5  1  0
  1  4  1  0
M  CHG 1  25   1
M  CHG 1  29   1
M  CHG 1  33   1
M  END
> <minimizedAffinity>
-6.56501

> <CNNscore>
0.8331578374

> <CNNaffinity>
6.7127604485

> <CNN_VS>
5.5927891731

> <CNNaffinity_variance>
0.0255076680

$$$$



 36 37  0  0  0  0  0  0  0  0999 V2000
  -25.4195    6.8339  -14.6942 N   0  0  0  0  0  0  0  0  0  0  0  0
  -26.2939    5.9473  -14.1242 C   0  0  0  0  0  0  0  0  0  0  0  0
  -26.2195    5.4254  -13.0142 O   0  0  0  0  0  0  0  0  0  0  0  0
  -25.6328    7.1076  -15.6155 H   0  0  0  0  0  0  0  0  0  0  0  0
  -24.2065    8.8150  -13.9468 C   0  0  0  0  0  0  0  0  0  0  0  0
  -23.0313    9.4341  -13.4969 C   0  0  0  0  0  0  0  0  0  0  0  0
  -21.9288    8.6550  -13.1637 C   0  0  0  0  0  0  0  0  0  0  0  0
  -20.3512    9.4828  -12.5403 Br  0  0  0  0  0  0  0  0  0  0  0  0
  -21.9792    7.2685  -13.2894 C   0  0  0  0  0  0  0  0  0  0  0  0
  -23.1332    6.6496  -13.7822 C   0  0  0  0  0  0  0  0  0  0  0  0
  -24.2499    7.4116  -14.1404 C   0  0  0  0  0  0  0  0  0  0  0  0
  -27.2479    9.7276   -9.6944 C   0  0  0  0  0  0  0  0  0  0  0  0
  -26.8183   10.5065  -10.9345 C   0  0  0  0  0  0  0  0  0  0  0  0
  -27.9140   11.4917  -11.3638 C   0  0  0  0  0  0  0  0  0  0  0  0
  -27.5049   12.2350  -12.6411 C   0  0  0  0  0  0  0  0  0  0  0  0
  -28.6174   13.1741  -13.1024 C   0  0  0  0  0  0  0  0  0  0  0  0
  -27.1356   11.2459  -13.7518 C   0  0  0  0  0  0  0  0  0  0  0  0
  -26.1295   10.2771  -13.3132 N   0  0  0  0  0  0  0  0  0  0  0  0
  -25.3777    9.6610  -14.3171 C   0  0  0  0  0  0  0  0  0  0  0  0
  -25.6266    9.7732  -15.5204 O   0  0  0  0  0  0  0  0  0  0  0  0
  -26.4791    9.5528  -12.0823 C   0  0  0  0  0  0  0  0  0  0  0  0
  -27.3817    5.4857  -15.0731 C   0  0  0  0  0  0  0  0  0  0  0  0
  -26.7929    5.0329  -16.4089 C   0  0  0  0  0  0  0  0  0  0  0  0
  -26.9407    5.9439  -17.6432 C   0  0  0  0  0  0  0  0  0  0  0  0
  -27.7690    5.4109  -18.9094 N   0  0  0  0  0  0  0  0  0  0  0  0
  -29.0387    4.7589  -18.3930 C   0  0  0  0  0  0  0  0  0  0  0  0
  -26.9029    4.3534  -19.6141 C   0  0  0  0  0  0  0  0  0  0  0  0
  -27.9312    6.6582  -19.7919 C   0  0  0  0  0  0  0  0  0  0  0  0
  -29.2876    7.3956  -20.0353 N   0  0  0  0  0  0  0  0  0  0  0  0
  -29.8202    7.8986  -18.6889 C   0  0  0  0  0  0  0  0  0  0  0  0
  -30.3136    6.5272  -20.7099 C   0  0  0  0  0  0  0  0  0  0  0  0
  -28.8995    8.6212  -20.9178 C   0  0  0  0  0  0  0  0  0  0  0  0
  -29.9156    9.4515  -21.6861 N   0  0  0  0  0  0  0  0  0  0  0  0
  -30.2916    8.8722  -23.0625 C   0  0  0  0  0  0  0  0  0  0  0  0
  -31.1867    9.8647  -20.9539 C   0  0  0  0  0  0  0  0  0  0  0  0
  -29.1882   10.8079  -22.0241 C   0  0  0  0  0  0  0  0  0  0  0  0
 13 12  1  0
 13 14  1  0
 14 15  1  0
 15 16  1  0
 15 17  1  0
 17 18  1  0
 18 19  1  0
 19 20  2  0
 19  5  1  0
  5  6  2  0
  6  7  1  0
  7  8  1  0
  7  9  2  0
  9 10  1  0
 10 11  2  0
 11  1  1  0
  1  2  1  0
  2  3  2  0
  2 22  1  0
 22 23  1  0
 23 24  1  0
 24 25  1  0
 25 26  1  0
 25 27  1  0
 25 28  1  0
 28 29  1  0
 29 30  1  0
 29 31  1  0
 29 32  1  0
 32 33  1  0
 33 34  1  0
 33 35  1  0
 33 36  1  0
 18 21  1  0
 21 13  1  0
 11  5  1  0
  1  4  1  0
M  CHG 1  25   1
M  CHG 1  29   1
M  CHG 1  33   1
M  END
> <minimizedAffinity>
-6.30978

> <CNNscore>
0.7714839578

> <CNNaffinity>
6.5206222534

> <CNN_VS>
5.0305552483

> <CNNaffinity_variance>
0.0925553814

$$$$



 36 37  0  0  0  0  0  0  0  0999 V2000
  -25.6171    6.8469  -14.2167 N   0  0  0  0  0  0  0  0  0  0  0  0
  -26.4794    6.0877  -13.4714 C   0  0  0  0  0  0  0  0  0  0  0  0
  -26.3431    5.7185  -12.3073 O   0  0  0  0  0  0  0  0  0  0  0  0
  -25.8871    7.0026  -15.1505 H   0  0  0  0  0  0  0  0  0  0  0  0
  -24.2820    8.8525  -13.8295 C   0  0  0  0  0  0  0  0  0  0  0  0
  -23.0552    9.4719  -13.5501 C   0  0  0  0  0  0  0  0  0  0  0  0
  -21.9590    8.6946  -13.1927 C   0  0  0  0  0  0  0  0  0  0  0  0
  -20.3108    9.5254  -12.7981 Br  0  0  0  0  0  0  0  0  0  0  0  0
  -22.0677    7.3073  -13.1266 C   0  0  0  0  0  0  0  0  0  0  0  0
  -23.2766    6.6815  -13.4498 C   0  0  0  0  0  0  0  0  0  0  0  0
  -24.3894    7.4393  -13.8287 C   0  0  0  0  0  0  0  0  0  0  0  0
  -27.3341    9.9002   -9.6159 C   0  0  0  0  0  0  0  0  0  0  0  0
  -26.8955   10.6418  -10.8756 C   0  0  0  0  0  0  0  0  0  0  0  0
  -27.9841   11.6206  -11.3365 C   0  0  0  0  0  0  0  0  0  0  0  0
  -27.5661   12.3256  -12.6324 C   0  0  0  0  0  0  0  0  0  0  0  0
  -28.6716   13.2576  -13.1241 C   0  0  0  0  0  0  0  0  0  0  0  0
  -27.1982   11.3039  -13.7137 C   0  0  0  0  0  0  0  0  0  0  0  0
  -26.1992   10.3423  -13.2443 N   0  0  0  0  0  0  0  0  0  0  0  0
  -25.4471    9.6942  -14.2278 C   0  0  0  0  0  0  0  0  0  0  0  0
  -25.6909    9.7742  -15.4347 O   0  0  0  0  0  0  0  0  0  0  0  0
  -26.5574    9.6545  -11.9951 C   0  0  0  0  0  0  0  0  0  0  0  0
  -27.6502    5.5528  -14.2714 C   0  0  0  0  0  0  0  0  0  0  0  0
  -28.9784    5.8717  -13.5857 C   0  0  0  0  0  0  0  0  0  0  0  0
  -29.8364    4.7163  -13.0343 C   0  0  0  0  0  0  0  0  0  0  0  0
  -30.2143    4.7025  -11.4753 N   0  0  0  0  0  0  0  0  0  0  0  0
  -30.9055    6.0149  -11.1531 C   0  0  0  0  0  0  0  0  0  0  0  0
  -28.8990    4.6110  -10.6836 C   0  0  0  0  0  0  0  0  0  0  0  0
  -31.0399    3.4172  -11.3103 C   0  0  0  0  0  0  0  0  0  0  0  0
  -31.2308    2.6597   -9.9565 N   0  0  0  0  0  0  0  0  0  0  0  0
  -30.0241    1.7410   -9.7349 C   0  0  0  0  0  0  0  0  0  0  0  0
  -32.5069    1.8655   -9.9045 C   0  0  0  0  0  0  0  0  0  0  0  0
  -31.2117    3.7910   -8.8835 C   0  0  0  0  0  0  0  0  0  0  0  0
  -32.4324    4.1893   -8.0691 N   0  0  0  0  0  0  0  0  0  0  0  0
  -33.5499    4.8555   -8.8929 C   0  0  0  0  0  0  0  0  0  0  0  0
  -33.0459    3.1344   -7.1563 C   0  0  0  0  0  0  0  0  0  0  0  0
  -31.9412    5.3263   -7.0949 C   0  0  0  0  0  0  0  0  0  0  0  0
 13 12  1  0
 13 14  1  0
 14 15  1  0
 15 16  1  0
 15 17  1  0
 17 18  1  0
 18 19  1  0
 19 20  2  0
 19  5  1  0
  5  6  2  0
  6  7  1  0
  7  8  1  0
  7  9  2  0
  9 10  1  0
 10 11  2  0
 11  1  1  0
  1  2  1  0
  2  3  2  0
  2 22  1  0
 22 23  1  0
 23 24  1  0
 24 25  1  0
 25 26  1  0
 25 27  1  0
 25 28  1  0
 28 29  1  0
 29 30  1  0
 29 31  1  0
 29 32  1  0
 32 33  1  0
 33 34  1  0
 33 35  1  0
 33 36  1  0
 18 21  1  0
 21 13  1  0
 11  5  1  0
  1  4  1  0
M  CHG 1  25   1
M  CHG 1  29   1
M  CHG 1  33   1
M  END
> <minimizedAffinity>
-6.47806

> <CNNscore>
0.7230409980

> <CNNaffinity>
6.5055613518

> <CNN_VS>
4.7037878036

> <CNNaffinity_variance>
0.0775605738

$$$$



 36 37  0  0  0  0  0  0  0  0999 V2000
  -25.3984    7.0823  -15.0985 N   0  0  0  0  0  0  0  0  0  0  0  0
  -25.5980    6.9128  -16.4427 C   0  0  0  0  0  0  0  0  0  0  0  0
  -24.8391    7.2168  -17.3602 O   0  0  0  0  0  0  0  0  0  0  0  0
  -26.1480    6.8112  -14.5206 H   0  0  0  0  0  0  0  0  0  0  0  0
  -24.2498    8.9593  -14.0440 C   0  0  0  0  0  0  0  0  0  0  0  0
  -23.1040    9.5263  -13.4674 C   0  0  0  0  0  0  0  0  0  0  0  0
  -22.0021    8.7226  -13.1961 C   0  0  0  0  0  0  0  0  0  0  0  0
  -20.4647    9.4778  -12.4034 Br  0  0  0  0  0  0  0  0  0  0  0  0
  -22.0238    7.3650  -13.5077 C   0  0  0  0  0  0  0  0  0  0  0  0
  -23.1468    6.8042  -14.1258 C   0  0  0  0  0  0  0  0  0  0  0  0
  -24.2615    7.5942  -14.4248 C   0  0  0  0  0  0  0  0  0  0  0  0
  -27.2593    9.5822   -9.7171 C   0  0  0  0  0  0  0  0  0  0  0  0
  -26.8347   10.4447  -10.9024 C   0  0  0  0  0  0  0  0  0  0  0  0
  -27.9291   11.4616  -11.2540 C   0  0  0  0  0  0  0  0  0  0  0  0
  -27.5254   12.2912  -12.4787 C   0  0  0  0  0  0  0  0  0  0  0  0
  -28.6370   13.2645  -12.8653 C   0  0  0  0  0  0  0  0  0  0  0  0
  -27.1675   11.3812  -13.6586 C   0  0  0  0  0  0  0  0  0  0  0  0
  -26.1625   10.3804  -13.2961 N   0  0  0  0  0  0  0  0  0  0  0  0
  -25.4200    9.8336  -14.3459 C   0  0  0  0  0  0  0  0  0  0  0  0
  -25.6763   10.0310  -15.5366 O   0  0  0  0  0  0  0  0  0  0  0  0
  -26.5070    9.5727  -12.1167 C   0  0  0  0  0  0  0  0  0  0  0  0
  -26.9901    6.4203  -16.7836 C   0  0  0  0  0  0  0  0  0  0  0  0
  -27.1518    4.9404  -16.4376 C   0  0  0  0  0  0  0  0  0  0  0  0
  -25.9750    3.9770  -16.6868 C   0  0  0  0  0  0  0  0  0  0  0  0
  -26.0377    2.9798  -17.9419 N   0  0  0  0  0  0  0  0  0  0  0  0
  -24.6751    2.3264  -18.0848 C   0  0  0  0  0  0  0  0  0  0  0  0
  -26.3295    3.8289  -19.1905 C   0  0  0  0  0  0  0  0  0  0  0  0
  -27.2252    2.0596  -17.6192 C   0  0  0  0  0  0  0  0  0  0  0  0
  -28.4835    1.8917  -18.5310 N   0  0  0  0  0  0  0  0  0  0  0  0
  -28.7043    0.3973  -18.7907 C   0  0  0  0  0  0  0  0  0  0  0  0
  -28.3668    2.6351  -19.8331 C   0  0  0  0  0  0  0  0  0  0  0  0
  -29.6574    2.4348  -17.6602 C   0  0  0  0  0  0  0  0  0  0  0  0
  -30.0541    1.8292  -16.3230 N   0  0  0  0  0  0  0  0  0  0  0  0
  -29.9550    0.2933  -16.2724 C   0  0  0  0  0  0  0  0  0  0  0  0
  -29.4165    2.4125  -15.0678 C   0  0  0  0  0  0  0  0  0  0  0  0
  -31.5943    2.1217  -16.1638 C   0  0  0  0  0  0  0  0  0  0  0  0
 13 12  1  0
 13 14  1  0
 14 15  1  0
 15 16  1  0
 15 17  1  0
 17 18  1  0
 18 19  1  0
 19 20  2  0
 19  5  1  0
  5  6  2  0
  6  7  1  0
  7  8  1  0
  7  9  2  0
  9 10  1  0
 10 11  2  0
 11  1  1  0
  1  2  1  0
  2  3  2  0
  2 22  1  0
 22 23  1  0
 23 24  1  0
 24 25  1  0
 25 26  1  0
 25 27  1  0
 25 28  1  0
 28 29  1  0
 29 30  1  0
 29 31  1  0
 29 32  1  0
 32 33  1  0
 33 34  1  0
 33 35  1  0
 33 36  1  0
 18 21  1  0
 21 13  1  0
 11  5  1  0
  1  4  1  0
M  CHG 1  25   1
M  CHG 1  29   1
M  CHG 1  33   1
M  END
> <minimizedAffinity>
-6.13352

> <CNNscore>
0.7122827768

> <CNNaffinity>
6.1798634529

> <CNN_VS>
4.4018101692

> <CNNaffinity_variance>
0.2996545732

$$$$



 36 37  0  0  0  0  0  0  0  0999 V2000
  -25.6526    6.7355  -15.7723 N   0  0  0  0  0  0  0  0  0  0  0  0
  -25.6875    5.7801  -16.7527 C   0  0  0  0  0  0  0  0  0  0  0  0
  -24.7404    5.1680  -17.2409 O   0  0  0  0  0  0  0  0  0  0  0  0
  -26.5200    7.1419  -15.5446 H   0  0  0  0  0  0  0  0  0  0  0  0
  -24.5830    7.1792  -13.6243 C   0  0  0  0  0  0  0  0  0  0  0  0
  -23.5462    7.7411  -12.8654 C   0  0  0  0  0  0  0  0  0  0  0  0
  -22.4327    8.2699  -13.5090 C   0  0  0  0  0  0  0  0  0  0  0  0
  -21.0267    9.0108  -12.4909 Br  0  0  0  0  0  0  0  0  0  0  0  0
  -22.3488    8.2593  -14.8996 C   0  0  0  0  0  0  0  0  0  0  0  0
  -23.4015    7.7421  -15.6626 C   0  0  0  0  0  0  0  0  0  0  0  0
  -24.5399    7.2198  -15.0403 C   0  0  0  0  0  0  0  0  0  0  0  0
  -27.2944   11.0787  -11.2558 C   0  0  0  0  0  0  0  0  0  0  0  0
  -27.6321    9.7769  -11.9773 C   0  0  0  0  0  0  0  0  0  0  0  0
  -28.9136    9.1554  -11.4054 C   0  0  0  0  0  0  0  0  0  0  0  0
  -29.2227    7.8203  -12.0932 C   0  0  0  0  0  0  0  0  0  0  0  0
  -30.4653    7.1722  -11.4866 C   0  0  0  0  0  0  0  0  0  0  0  0
  -28.0211    6.8730  -12.0077 C   0  0  0  0  0  0  0  0  0  0  0  0
  -26.7934    7.4959  -12.5055 N   0  0  0  0  0  0  0  0  0  0  0  0
  -25.7802    6.6296  -12.9247 C   0  0  0  0  0  0  0  0  0  0  0  0
  -25.8118    5.4088  -12.7485 O   0  0  0  0  0  0  0  0  0  0  0  0
  -26.4695    8.7864  -11.8797 C   0  0  0  0  0  0  0  0  0  0  0  0
  -27.0618    5.6020  -17.3662 C   0  0  0  0  0  0  0  0  0  0  0  0
  -26.9946    4.7472  -18.6314 C   0  0  0  0  0  0  0  0  0  0  0  0
  -27.4882    3.2881  -18.5802 C   0  0  0  0  0  0  0  0  0  0  0  0
  -26.5556    2.1293  -19.1811 N   0  0  0  0  0  0  0  0  0  0  0  0
  -27.4092    0.8852  -19.3473 C   0  0  0  0  0  0  0  0  0  0  0  0
  -25.4454    1.8525  -18.1536 C   0  0  0  0  0  0  0  0  0  0  0  0
  -25.9726    2.7542  -20.4581 C   0  0  0  0  0  0  0  0  0  0  0  0
  -25.8762    2.0197  -21.8343 N   0  0  0  0  0  0  0  0  0  0  0  0
  -25.3269    0.6082  -21.5989 C   0  0  0  0  0  0  0  0  0  0  0  0
  -25.0205    2.7524  -22.8307 C   0  0  0  0  0  0  0  0  0  0  0  0
  -27.3568    1.9152  -22.3124 C   0  0  0  0  0  0  0  0  0  0  0  0
  -27.7571    1.8381  -23.7773 N   0  0  0  0  0  0  0  0  0  0  0  0
  -27.7490    3.1951  -24.5053 C   0  0  0  0  0  0  0  0  0  0  0  0
  -27.0562    0.8009  -24.6463 C   0  0  0  0  0  0  0  0  0  0  0  0
  -29.2729    1.4071  -23.7818 C   0  0  0  0  0  0  0  0  0  0  0  0
 13 12  1  0
 13 14  1  0
 14 15  1  0
 15 16  1  0
 15 17  1  0
 17 18  1  0
 18 19  1  0
 19 20  2  0
 19  5  1  0
  5  6  2  0
  6  7  1  0
  7  8  1  0
  7  9  2  0
  9 10  1  0
 10 11  2  0
 11  1  1  0
  1  2  1  0
  2  3  2  0
  2 22  1  0
 22 23  1  0
 23 24  1  0
 24 25  1  0
 25 26  1  0
 25 27  1  0
 25 28  1  0
 28 29  1  0
 29 30  1  0
 29 31  1  0
 29 32  1  0
 32 33  1  0
 33 34  1  0
 33 35  1  0
 33 36  1  0
 18 21  1  0
 21 13  1  0
 11  5  1  0
  1  4  1  0
M  CHG 1  25   1
M  CHG 1  29   1
M  CHG 1  33   1
M  END
> <minimizedAffinity>
-4.94917

> <CNNscore>
0.7015616298

> <CNNaffinity>
6.1453022957

> <CNN_VS>
4.3113083839

> <CNNaffinity_variance>
0.0022398122

$$$$



 36 37  0  0  0  0  0  0  0  0999 V2000
  -25.4848    7.0933  -15.2463 N   0  0  0  0  0  0  0  0  0  0  0  0
  -25.6840    6.9549  -16.5941 C   0  0  0  0  0  0  0  0  0  0  0  0
  -24.9182    7.2652  -17.5037 O   0  0  0  0  0  0  0  0  0  0  0  0
  -26.2400    6.8228  -14.6756 H   0  0  0  0  0  0  0  0  0  0  0  0
  -24.3156    8.9241  -14.1345 C   0  0  0  0  0  0  0  0  0  0  0  0
  -23.1629    9.4613  -13.5435 C   0  0  0  0  0  0  0  0  0  0  0  0
  -22.0677    8.6390  -13.3025 C   0  0  0  0  0  0  0  0  0  0  0  0
  -20.5209    9.3537  -12.4905 Br  0  0  0  0  0  0  0  0  0  0  0  0
  -22.1028    7.2927  -13.6585 C   0  0  0  0  0  0  0  0  0  0  0  0
  -23.2329    6.7628  -14.2909 C   0  0  0  0  0  0  0  0  0  0  0  0
  -24.3411    7.5724  -14.5600 C   0  0  0  0  0  0  0  0  0  0  0  0
  -27.2708    9.4827   -9.7617 C   0  0  0  0  0  0  0  0  0  0  0  0
  -26.8489   10.3671  -10.9317 C   0  0  0  0  0  0  0  0  0  0  0  0
  -27.9349   11.4043  -11.2480 C   0  0  0  0  0  0  0  0  0  0  0  0
  -27.5347   12.2570  -12.4579 C   0  0  0  0  0  0  0  0  0  0  0  0
  -28.6388   13.2516  -12.8101 C   0  0  0  0  0  0  0  0  0  0  0  0
  -27.2002   11.3701  -13.6621 C   0  0  0  0  0  0  0  0  0  0  0  0
  -26.2033   10.3497  -13.3335 N   0  0  0  0  0  0  0  0  0  0  0  0
  -25.4786    9.8184  -14.4036 C   0  0  0  0  0  0  0  0  0  0  0  0
  -25.7454   10.0459  -15.5866 O   0  0  0  0  0  0  0  0  0  0  0  0
  -26.5445    9.5193  -12.1690 C   0  0  0  0  0  0  0  0  0  0  0  0
  -27.0833    6.4927  -16.9479 C   0  0  0  0  0  0  0  0  0  0  0  0
  -27.0698    5.5835  -18.1764 C   0  0  0  0  0  0  0  0  0  0  0  0
  -27.1259    4.0557  -17.9818 C   0  0  0  0  0  0  0  0  0  0  0  0
  -26.6249    3.1008  -19.1695 N   0  0  0  0  0  0  0  0  0  0  0  0
  -27.2222    1.7240  -18.9422 C   0  0  0  0  0  0  0  0  0  0  0  0
  -25.0924    3.0138  -19.0750 C   0  0  0  0  0  0  0  0  0  0  0  0
  -27.0506    3.8471  -20.4434 C   0  0  0  0  0  0  0  0  0  0  0  0
  -28.4782    3.7700  -21.0749 N   0  0  0  0  0  0  0  0  0  0  0  0
  -28.9339    5.1895  -21.4305 C   0  0  0  0  0  0  0  0  0  0  0  0
  -29.4836    3.1108  -20.1713 C   0  0  0  0  0  0  0  0  0  0  0  0
  -28.2671    2.9598  -22.3905 C   0  0  0  0  0  0  0  0  0  0  0  0
  -27.6180    3.5442  -23.6352 N   0  0  0  0  0  0  0  0  0  0  0  0
  -26.8635    4.8644  -23.3921 C   0  0  0  0  0  0  0  0  0  0  0  0
  -26.7474    2.6190  -24.4770 C   0  0  0  0  0  0  0  0  0  0  0  0
  -28.8082    3.9495  -24.5851 C   0  0  0  0  0  0  0  0  0  0  0  0
 13 12  1  0
 13 14  1  0
 14 15  1  0
 15 16  1  0
 15 17  1  0
 17 18  1  0
 18 19  1  0
 19 20  2  0
 19  5  1  0
  5  6  2  0
  6  7  1  0
  7  8  1  0
  7  9  2  0
  9 10  1  0
 10 11  2  0
 11  1  1  0
  1  2  1  0
  2  3  2  0
  2 22  1  0
 22 23  1  0
 23 24  1  0
 24 25  1  0
 25 26  1  0
 25 27  1  0
 25 28  1  0
 28 29  1  0
 29 30  1  0
 29 31  1  0
 29 32  1  0
 32 33  1  0
 33 34  1  0
 33 35  1  0
 33 36  1  0
 18 21  1  0
 21 13  1  0
 11  5  1  0
  1  4  1  0
M  CHG 1  25   1
M  CHG 1  29   1
M  CHG 1  33   1
M  END
> <minimizedAffinity>
-6.06975

> <CNNscore>
0.6653463244

> <CNNaffinity>
6.2715358734

> <CNN_VS>
4.1727433205

> <CNNaffinity_variance>
0.0764029697

$$$$



 36 37  0  0  0  0  0  0  0  0999 V2000
  -25.2905    6.0643  -15.2834 N   0  0  0  0  0  0  0  0  0  0  0  0
  -26.1417    6.5035  -16.2622 C   0  0  0  0  0  0  0  0  0  0  0  0
  -26.1662    7.6094  -16.7973 O   0  0  0  0  0  0  0  0  0  0  0  0
  -25.4588    5.1525  -14.9523 H   0  0  0  0  0  0  0  0  0  0  0  0
  -24.2897    7.0990  -13.3130 C   0  0  0  0  0  0  0  0  0  0  0  0
  -23.2765    7.8579  -12.7096 C   0  0  0  0  0  0  0  0  0  0  0  0
  -22.1414    8.1925  -13.4399 C   0  0  0  0  0  0  0  0  0  0  0  0
  -20.7671    9.1982  -12.6262 Br  0  0  0  0  0  0  0  0  0  0  0  0
  -22.0127    7.7932  -14.7683 C   0  0  0  0  0  0  0  0  0  0  0  0
  -23.0414    7.0761  -15.3889 C   0  0  0  0  0  0  0  0  0  0  0  0
  -24.2007    6.7416  -14.6816 C   0  0  0  0  0  0  0  0  0  0  0  0
  -27.0066   11.4998  -12.1222 C   0  0  0  0  0  0  0  0  0  0  0  0
  -27.3437   10.0565  -12.4859 C   0  0  0  0  0  0  0  0  0  0  0  0
  -28.6463    9.6147  -11.8052 C   0  0  0  0  0  0  0  0  0  0  0  0
  -28.9560    8.1478  -12.1269 C   0  0  0  0  0  0  0  0  0  0  0  0
  -30.2210    7.6892  -11.4047 C   0  0  0  0  0  0  0  0  0  0  0  0
  -27.7690    7.2488  -11.7643 C   0  0  0  0  0  0  0  0  0  0  0  0
  -26.5219    7.7117  -12.3753 N   0  0  0  0  0  0  0  0  0  0  0  0
  -25.5102    6.7596  -12.5258 C   0  0  0  0  0  0  0  0  0  0  0  0
  -25.5617    5.6279  -12.0366 O   0  0  0  0  0  0  0  0  0  0  0  0
  -26.1965    9.1192  -12.1013 C   0  0  0  0  0  0  0  0  0  0  0  0
  -27.2477    5.5174  -16.5800 C   0  0  0  0  0  0  0  0  0  0  0  0
  -26.6763    4.1820  -17.0557 C   0  0  0  0  0  0  0  0  0  0  0  0
  -26.4639    3.9497  -18.5644 C   0  0  0  0  0  0  0  0  0  0  0  0
  -26.1905    2.4595  -19.0916 N   0  0  0  0  0  0  0  0  0  0  0  0
  -27.2004    2.1606  -20.1847 C   0  0  0  0  0  0  0  0  0  0  0  0
  -26.4206    1.5033  -17.9093 C   0  0  0  0  0  0  0  0  0  0  0  0
  -24.7079    2.4803  -19.4947 C   0  0  0  0  0  0  0  0  0  0  0  0
  -23.9203    1.2377  -20.0224 N   0  0  0  0  0  0  0  0  0  0  0  0
  -23.7979    0.2164  -18.8861 C   0  0  0  0  0  0  0  0  0  0  0  0
  -22.5587    1.5901  -20.5551 C   0  0  0  0  0  0  0  0  0  0  0  0
  -24.8407    0.6508  -21.1359 C   0  0  0  0  0  0  0  0  0  0  0  0
  -24.7036    1.0099  -22.6071 N   0  0  0  0  0  0  0  0  0  0  0  0
  -25.7597    0.3553  -23.5169 C   0  0  0  0  0  0  0  0  0  0  0  0
  -24.5829    2.4865  -22.9642 C   0  0  0  0  0  0  0  0  0  0  0  0
  -23.3415    0.3710  -23.0757 C   0  0  0  0  0  0  0  0  0  0  0  0
 13 12  1  0
 13 14  1  0
 14 15  1  0
 15 16  1  0
 15 17  1  0
 17 18  1  0
 18 19  1  0
 19 20  2  0
 19  5  1  0
  5  6  2  0
  6  7  1  0
  7  8  1  0
  7  9  2  0
  9 10  1  0
 10 11  2  0
 11  1  1  0
  1  2  1  0
  2  3  2  0
  2 22  1  0
 22 23  1  0
 23 24  1  0
 24 25  1  0
 25 26  1  0
 25 27  1  0
 25 28  1  0
 28 29  1  0
 29 30  1  0
 29 31  1  0
 29 32  1  0
 32 33  1  0
 33 34  1  0
 33 35  1  0
 33 36  1  0
 18 21  1  0
 21 13  1  0
 11  5  1  0
  1  4  1  0
M  CHG 1  25   1
M  CHG 1  29   1
M  CHG 1  33   1
M  END
> <minimizedAffinity>
-5.63727

> <CNNscore>
0.6615228057

> <CNNaffinity>
5.9806332588

> <CNN_VS>
3.9563252926

> <CNNaffinity_variance>
0.0989403352

$$$$



 36 37  0  0  0  0  0  0  0  0999 V2000
  -25.0585    7.4474  -15.5530 N   0  0  0  0  0  0  0  0  0  0  0  0
  -25.0117    6.8632  -16.7907 C   0  0  0  0  0  0  0  0  0  0  0  0
  -24.0152    6.5771  -17.4505 O   0  0  0  0  0  0  0  0  0  0  0  0
  -25.9605    7.6357  -15.2063 H   0  0  0  0  0  0  0  0  0  0  0  0
  -24.0056    9.1005  -14.0992 C   0  0  0  0  0  0  0  0  0  0  0  0
  -22.9163    9.5415  -13.3341 C   0  0  0  0  0  0  0  0  0  0  0  0
  -21.8475    8.6828  -13.1019 C   0  0  0  0  0  0  0  0  0  0  0  0
  -20.3876    9.2659  -12.0574 Br  0  0  0  0  0  0  0  0  0  0  0  0
  -21.8453    7.3965  -13.6369 C   0  0  0  0  0  0  0  0  0  0  0  0
  -22.9081    6.9681  -14.4397 C   0  0  0  0  0  0  0  0  0  0  0  0
  -23.9871    7.8182  -14.7025 C   0  0  0  0  0  0  0  0  0  0  0  0
  -27.4520    8.9810  -10.0650 C   0  0  0  0  0  0  0  0  0  0  0  0
  -26.9073   10.0366  -11.0232 C   0  0  0  0  0  0  0  0  0  0  0  0
  -27.9606   11.1192  -11.2947 C   0  0  0  0  0  0  0  0  0  0  0  0
  -27.4325   12.1500  -12.2996 C   0  0  0  0  0  0  0  0  0  0  0  0
  -28.4993   13.1963  -12.6150 C   0  0  0  0  0  0  0  0  0  0  0  0
  -26.9517   11.4628  -13.5822 C   0  0  0  0  0  0  0  0  0  0  0  0
  -25.9885   10.3955  -13.3063 N   0  0  0  0  0  0  0  0  0  0  0  0
  -25.1393   10.0352  -14.3559 C   0  0  0  0  0  0  0  0  0  0  0  0
  -25.2701   10.4496  -15.5107 O   0  0  0  0  0  0  0  0  0  0  0  0
  -26.4530    9.3935  -12.3356 C   0  0  0  0  0  0  0  0  0  0  0  0
  -26.3767    6.7052  -17.4298 C   0  0  0  0  0  0  0  0  0  0  0  0
  -26.6924    5.2343  -17.7001 C   0  0  0  0  0  0  0  0  0  0  0  0
  -26.3412    4.6300  -19.0736 C   0  0  0  0  0  0  0  0  0  0  0  0
  -27.3442    4.8594  -20.3044 N   0  0  0  0  0  0  0  0  0  0  0  0
  -27.1988    3.6797  -21.2485 C   0  0  0  0  0  0  0  0  0  0  0  0
  -26.9038    6.1454  -21.0237 C   0  0  0  0  0  0  0  0  0  0  0  0
  -28.7116    5.0529  -19.6310 C   0  0  0  0  0  0  0  0  0  0  0  0
  -29.7585    6.1330  -20.0557 N   0  0  0  0  0  0  0  0  0  0  0  0
  -29.1142    7.5176  -19.9256 C   0  0  0  0  0  0  0  0  0  0  0  0
  -31.0257    6.0700  -19.2481 C   0  0  0  0  0  0  0  0  0  0  0  0
  -30.0204    5.8343  -21.5636 C   0  0  0  0  0  0  0  0  0  0  0  0
  -31.2832    6.2656  -22.2927 N   0  0  0  0  0  0  0  0  0  0  0  0
  -32.4746    5.3070  -22.1109 C   0  0  0  0  0  0  0  0  0  0  0  0
  -31.7597    7.6988  -22.0901 C   0  0  0  0  0  0  0  0  0  0  0  0
  -30.9416    6.1695  -23.8281 C   0  0  0  0  0  0  0  0  0  0  0  0
 13 12  1  0
 13 14  1  0
 14 15  1  0
 15 16  1  0
 15 17  1  0
 17 18  1  0
 18 19  1  0
 19 20  2  0
 19  5  1  0
  5  6  2  0
  6  7  1  0
  7  8  1  0
  7  9  2  0
  9 10  1  0
 10 11  2  0
 11  1  1  0
  1  2  1  0
  2  3  2  0
  2 22  1  0
 22 23  1  0
 23 24  1  0
 24 25  1  0
 25 26  1  0
 25 27  1  0
 25 28  1  0
 28 29  1  0
 29 30  1  0
 29 31  1  0
 29 32  1  0
 32 33  1  0
 33 34  1  0
 33 35  1  0
 33 36  1  0
 18 21  1  0
 21 13  1  0
 11  5  1  0
  1  4  1  0
M  CHG 1  25   1
M  CHG 1  29   1
M  CHG 1  33   1
M  END
> <minimizedAffinity>
-5.74774

> <CNNscore>
0.6351190805

> <CNNaffinity>
6.3772540092

> <CNN_VS>
4.0503158569

> <CNNaffinity_variance>
0.0021987022

$$$$
