


 23 25  0  0  0  0  0  0  0  0999 V2000
   15.6781   16.4488   23.0196 C   0  0  0  0  0  0  0  0  0  0  0  0
   15.4679   16.4309   21.7433 N   0  0  0  0  0  0  0  0  0  0  0  0
   16.4949   16.8311   20.8647 C   0  0  0  0  0  0  0  0  0  0  0  0
   16.2666   16.8237   19.4789 C   0  0  0  0  0  0  0  0  0  0  0  0
   15.0720   16.4392   18.9987 F   0  0  0  0  0  0  0  0  0  0  0  0
   17.2857   17.2204   18.5925 C   0  0  0  0  0  0  0  0  0  0  0  0
   17.3047   17.2967   17.2167 N   0  0  0  0  0  0  0  0  0  0  0  0
   18.5003   17.7274   16.8953 C   0  0  0  0  0  0  0  0  0  0  0  0
   19.2657   17.9300   18.0123 N   0  0  0  0  0  0  0  0  0  0  0  0
   18.5135   17.6172   19.1158 C   0  0  0  0  0  0  0  0  0  0  0  0
   18.7919   17.6417   20.4825 C   0  0  0  0  0  0  0  0  0  0  0  0
   17.7478   17.2396   21.3336 C   0  0  0  0  0  0  0  0  0  0  0  0
   17.9516   17.2357   22.7912 C   0  0  0  0  0  0  0  0  0  0  0  0
   19.0201   17.5595   23.2975 O   0  0  0  0  0  0  0  0  0  0  0  0
   16.8749   16.8468   23.5438 N   0  0  0  0  0  0  0  0  0  0  0  0
   20.1979   18.2465   18.0219 H   0  0  0  0  0  0  0  0  0  0  0  0
   16.9697   16.8547   24.5237 H   0  0  0  0  0  0  0  0  0  0  0  0
   13.8576   14.9502   23.6947 C   0  0  0  0  0  0  0  0  0  0  0  0
   14.7348   16.0769   23.9321 N   0  0  0  0  0  0  0  0  0  0  0  0
   14.6488   16.5859   24.7704 H   0  0  0  0  0  0  0  0  0  0  0  0
   19.0162   17.9616   15.6737 N   0  0  0  0  0  0  0  0  0  0  0  0
   18.0972   18.3452   14.6190 C   0  0  0  0  0  0  0  0  0  0  0  0
   19.9819   17.8757   15.5027 H   0  0  0  0  0  0  0  0  0  0  0  0
 18 19  1  0
 19  1  1  0
  1  2  2  0
  2  3  1  0
  3  4  2  0
  4  5  1  0
  4  6  1  0
  6  7  1  0
  7  8  2  0
  8 21  1  0
 21 22  1  0
  8  9  1  0
  9 10  1  0
 10 11  1  0
 11 12  2  0
 12 13  1  0
 13 14  2  0
 13 15  1  0
 15  1  1  0
 12  3  1  0
 10  6  2  0
 19 20  1  0
 21 23  1  0
  9 16  1  0
 15 17  1  0
M  END
> <minimizedAffinity>
-9.06680

> <CNNscore>
0.9869216084

> <CNNaffinity>
6.9321036339

> <CNN_VS>
6.8414430618

> <CNNaffinity_variance>
0.1106504425

$$$$



 23 25  0  0  0  0  0  0  0  0999 V2000
   18.4279   17.7513   17.4674 C   0  0  0  0  0  0  0  0  0  0  0  0
   17.2781   17.3100   17.8632 N   0  0  0  0  0  0  0  0  0  0  0  0
   17.0377   17.1368   19.2413 C   0  0  0  0  0  0  0  0  0  0  0  0
   15.7944   16.6472   19.6741 C   0  0  0  0  0  0  0  0  0  0  0  0
   14.8437   16.3440   18.7743 F   0  0  0  0  0  0  0  0  0  0  0  0
   15.5434   16.4715   21.0480 C   0  0  0  0  0  0  0  0  0  0  0  0
   14.4234   16.0153   21.7088 N   0  0  0  0  0  0  0  0  0  0  0  0
   14.7191   16.0471   22.9853 C   0  0  0  0  0  0  0  0  0  0  0  0
   15.9912   16.5134   23.1830 N   0  0  0  0  0  0  0  0  0  0  0  0
   16.5463   16.7904   21.9597 C   0  0  0  0  0  0  0  0  0  0  0  0
   17.7967   17.2805   21.5827 C   0  0  0  0  0  0  0  0  0  0  0  0
   18.0078   17.4403   20.2021 C   0  0  0  0  0  0  0  0  0  0  0  0
   19.2989   17.9502   19.7129 C   0  0  0  0  0  0  0  0  0  0  0  0
   20.2052   18.2611   20.4776 O   0  0  0  0  0  0  0  0  0  0  0  0
   19.4223   18.0565   18.3526 N   0  0  0  0  0  0  0  0  0  0  0  0
   16.4326   16.6301   24.0552 H   0  0  0  0  0  0  0  0  0  0  0  0
   20.2815   18.3727   17.9904 H   0  0  0  0  0  0  0  0  0  0  0  0
   17.7031   18.0748   15.1467 C   0  0  0  0  0  0  0  0  0  0  0  0
   18.7358   17.9446   16.1526 N   0  0  0  0  0  0  0  0  0  0  0  0
   19.6809   17.9968   15.8820 H   0  0  0  0  0  0  0  0  0  0  0  0
   13.9554   15.7055   24.0405 N   0  0  0  0  0  0  0  0  0  0  0  0
   13.6758   14.2961   24.2388 C   0  0  0  0  0  0  0  0  0  0  0  0
   13.5999   16.3876   24.6550 H   0  0  0  0  0  0  0  0  0  0  0  0
 18 19  1  0
 19  1  1  0
  1  2  2  0
  2  3  1  0
  3  4  2  0
  4  5  1  0
  4  6  1  0
  6  7  1  0
  7  8  2  0
  8 21  1  0
 21 22  1  0
  8  9  1  0
  9 10  1  0
 10 11  1  0
 11 12  2  0
 12 13  1  0
 13 14  2  0
 13 15  1  0
 15  1  1  0
 12  3  1  0
 10  6  2  0
 19 20  1  0
 21 23  1  0
  9 16  1  0
 15 17  1  0
M  END
> <minimizedAffinity>
-7.83560

> <CNNscore>
0.9012826681

> <CNNaffinity>
6.5660700798

> <CNN_VS>
5.9178853035

> <CNNaffinity_variance>
0.1130544022

$$$$



 23 25  0  0  0  0  0  0  0  0999 V2000
   15.7044   16.5021   21.7474 C   0  0  0  0  0  0  0  0  0  0  0  0
   15.3858   16.5385   20.4942 N   0  0  0  0  0  0  0  0  0  0  0  0
   16.3492   16.9327   19.5438 C   0  0  0  0  0  0  0  0  0  0  0  0
   16.0035   16.9843   18.1835 C   0  0  0  0  0  0  0  0  0  0  0  0
   14.7581   16.6616   17.7959 F   0  0  0  0  0  0  0  0  0  0  0  0
   16.9584   17.3755   17.2259 C   0  0  0  0  0  0  0  0  0  0  0  0
   16.8631   17.5013   15.8569 N   0  0  0  0  0  0  0  0  0  0  0  0
   18.0430   17.8993   15.4477 C   0  0  0  0  0  0  0  0  0  0  0  0
   18.9083   18.0328   16.5005 N   0  0  0  0  0  0  0  0  0  0  0  0
   18.2410   17.7076   17.6539 C   0  0  0  0  0  0  0  0  0  0  0  0
   18.6355   17.6720   18.9914 C   0  0  0  0  0  0  0  0  0  0  0  0
   17.6527   17.2776   19.9158 C   0  0  0  0  0  0  0  0  0  0  0  0
   17.9797   17.2130   21.3494 C   0  0  0  0  0  0  0  0  0  0  0  0
   19.0994   17.4787   21.7718 O   0  0  0  0  0  0  0  0  0  0  0  0
   16.9564   16.8366   22.1790 N   0  0  0  0  0  0  0  0  0  0  0  0
   19.8497   18.3144   16.4398 H   0  0  0  0  0  0  0  0  0  0  0  0
   17.1346   16.8052   23.1468 H   0  0  0  0  0  0  0  0  0  0  0  0
   13.4263   16.4850   22.6559 C   0  0  0  0  0  0  0  0  0  0  0  0
   14.8284   16.1319   22.7252 N   0  0  0  0  0  0  0  0  0  0  0  0
   15.1568   15.6133   23.4949 H   0  0  0  0  0  0  0  0  0  0  0  0
   18.4618   18.1590   14.1946 N   0  0  0  0  0  0  0  0  0  0  0  0
   17.6448   17.6726   13.0992 C   0  0  0  0  0  0  0  0  0  0  0  0
   19.2924   18.6607   14.0280 H   0  0  0  0  0  0  0  0  0  0  0  0
 18 19  1  0
 19  1  1  0
  1  2  2  0
  2  3  1  0
  3  4  2  0
  4  5  1  0
  4  6  1  0
  6  7  1  0
  7  8  2  0
  8 21  1  0
 21 22  1  0
  8  9  1  0
  9 10  1  0
 10 11  1  0
 11 12  2  0
 12 13  1  0
 13 14  2  0
 13 15  1  0
 15  1  1  0
 12  3  1  0
 10  6  2  0
 19 20  1  0
 21 23  1  0
  9 16  1  0
 15 17  1  0
M  END
> <minimizedAffinity>
-7.18584

> <CNNscore>
0.8707254529

> <CNNaffinity>
6.2896685600

> <CNN_VS>
5.4765744209

> <CNNaffinity_variance>
0.1339513808

$$$$



 23 25  0  0  0  0  0  0  0  0999 V2000
   17.9593   17.7471   16.2722 C   0  0  0  0  0  0  0  0  0  0  0  0
   18.2970   17.7374   17.5209 N   0  0  0  0  0  0  0  0  0  0  0  0
   17.3568   17.3362   18.4915 C   0  0  0  0  0  0  0  0  0  0  0  0
   17.7164   17.3352   19.8492 C   0  0  0  0  0  0  0  0  0  0  0  0
   18.9508   17.7189   20.2156 F   0  0  0  0  0  0  0  0  0  0  0  0
   16.7855   16.9353   20.8265 C   0  0  0  0  0  0  0  0  0  0  0  0
   16.8983   16.8494   22.1973 N   0  0  0  0  0  0  0  0  0  0  0  0
   15.7366   16.4231   22.6293 C   0  0  0  0  0  0  0  0  0  0  0  0
   14.8697   16.2218   21.5887 N   0  0  0  0  0  0  0  0  0  0  0  0
   15.5120   16.5451   20.4207 C   0  0  0  0  0  0  0  0  0  0  0  0
   15.1052   16.5270   19.0866 C   0  0  0  0  0  0  0  0  0  0  0  0
   16.0633   16.9345   18.1422 C   0  0  0  0  0  0  0  0  0  0  0  0
   15.7209   16.9486   16.7108 C   0  0  0  0  0  0  0  0  0  0  0  0
   14.6191   16.5971   16.3041 O   0  0  0  0  0  0  0  0  0  0  0  0
   16.7094   17.3769   15.8644 N   0  0  0  0  0  0  0  0  0  0  0  0
   13.9426   15.8997   21.6658 H   0  0  0  0  0  0  0  0  0  0  0  0
   16.5061   17.4206   14.9021 H   0  0  0  0  0  0  0  0  0  0  0  0
   18.3232   18.5072   13.9688 C   0  0  0  0  0  0  0  0  0  0  0  0
   18.8120   18.1225   15.2759 N   0  0  0  0  0  0  0  0  0  0  0  0
   19.7810   18.1320   15.4496 H   0  0  0  0  0  0  0  0  0  0  0  0
   15.3428   16.1716   23.8922 N   0  0  0  0  0  0  0  0  0  0  0  0
   14.1928   15.3071   24.0774 C   0  0  0  0  0  0  0  0  0  0  0  0
   15.8181   16.5602   24.6618 H   0  0  0  0  0  0  0  0  0  0  0  0
 18 19  1  0
 19  1  1  0
  1  2  2  0
  2  3  1  0
  3  4  2  0
  4  5  1  0
  4  6  1  0
  6  7  1  0
  7  8  2  0
  8 21  1  0
 21 22  1  0
  8  9  1  0
  9 10  1  0
 10 11  1  0
 11 12  2  0
 12 13  1  0
 13 14  2  0
 13 15  1  0
 15  1  1  0
 12  3  1  0
 10  6  2  0
 19 20  1  0
 21 23  1  0
  9 16  1  0
 15 17  1  0
M  END
> <minimizedAffinity>
-7.38214

> <CNNscore>
0.5015537143

> <CNNaffinity>
5.6710610390

> <CNN_VS>
2.8443417549

> <CNNaffinity_variance>
0.3218933642

$$$$



 23 25  0  0  0  0  0  0  0  0999 V2000
   14.9219   16.0905   22.7499 C   0  0  0  0  0  0  0  0  0  0  0  0
   14.2860   15.9135   21.6374 N   0  0  0  0  0  0  0  0  0  0  0  0
   14.9021   16.2707   20.4209 C   0  0  0  0  0  0  0  0  0  0  0  0
   14.2103   16.0905   19.2119 C   0  0  0  0  0  0  0  0  0  0  0  0
   12.9662   15.5830   19.2210 F   0  0  0  0  0  0  0  0  0  0  0  0
   14.8167   16.4428   17.9913 C   0  0  0  0  0  0  0  0  0  0  0  0
   14.3512   16.3616   16.6968 N   0  0  0  0  0  0  0  0  0  0  0  0
   15.3144   16.8229   15.9369 C   0  0  0  0  0  0  0  0  0  0  0  0
   16.3958   17.1977   16.6886 N   0  0  0  0  0  0  0  0  0  0  0  0
   16.1055   16.9694   18.0095 C   0  0  0  0  0  0  0  0  0  0  0  0
   16.8357   17.1673   19.1815 C   0  0  0  0  0  0  0  0  0  0  0  0
   16.1944   16.8042   20.3785 C   0  0  0  0  0  0  0  0  0  0  0  0
   16.8892   16.9799   21.6641 C   0  0  0  0  0  0  0  0  0  0  0  0
   18.0305   17.4227   21.7292 O   0  0  0  0  0  0  0  0  0  0  0  0
   16.1820   16.6166   22.7798 N   0  0  0  0  0  0  0  0  0  0  0  0
   17.2387   17.5681   16.3400 H   0  0  0  0  0  0  0  0  0  0  0  0
   16.6087   16.7427   23.6580 H   0  0  0  0  0  0  0  0  0  0  0  0
   13.8184   14.4662   24.2194 C   0  0  0  0  0  0  0  0  0  0  0  0
   14.3929   15.7703   23.9658 N   0  0  0  0  0  0  0  0  0  0  0  0
   14.4022   16.4409   24.6866 H   0  0  0  0  0  0  0  0  0  0  0  0
   15.3508   16.9456   14.5965 N   0  0  0  0  0  0  0  0  0  0  0  0
   14.9254   15.8061   13.8061 C   0  0  0  0  0  0  0  0  0  0  0  0
   15.6551   17.7783   14.1685 H   0  0  0  0  0  0  0  0  0  0  0  0
 18 19  1  0
 19  1  1  0
  1  2  2  0
  2  3  1  0
  3  4  2  0
  4  5  1  0
  4  6  1  0
  6  7  1  0
  7  8  2  0
  8 21  1  0
 21 22  1  0
  8  9  1  0
  9 10  1  0
 10 11  1  0
 11 12  2  0
 12 13  1  0
 13 14  2  0
 13 15  1  0
 15  1  1  0
 12  3  1  0
 10  6  2  0
 19 20  1  0
 21 23  1  0
  9 16  1  0
 15 17  1  0
M  END
> <minimizedAffinity>
-7.41915

> <CNNscore>
0.4168360829

> <CNNaffinity>
5.6283516884

> <CNN_VS>
2.3461000919

> <CNNaffinity_variance>
0.0839605108

$$$$



 23 25  0  0  0  0  0  0  0  0999 V2000
   16.3529   16.6429   22.8514 C   0  0  0  0  0  0  0  0  0  0  0  0
   16.4325   16.7092   21.5619 N   0  0  0  0  0  0  0  0  0  0  0  0
   15.2599   16.6005   20.7872 C   0  0  0  0  0  0  0  0  0  0  0  0
   15.3439   16.6608   19.3865 C   0  0  0  0  0  0  0  0  0  0  0  0
   16.5392   16.8180   18.7931 F   0  0  0  0  0  0  0  0  0  0  0  0
   14.1790   16.5545   18.6034 C   0  0  0  0  0  0  0  0  0  0  0  0
   14.0057   16.5847   17.2365 N   0  0  0  0  0  0  0  0  0  0  0  0
   12.7189   16.4413   17.0324 C   0  0  0  0  0  0  0  0  0  0  0  0
   12.0439   16.3240   18.2179 N   0  0  0  0  0  0  0  0  0  0  0  0
   12.9532   16.3892   19.2427 C   0  0  0  0  0  0  0  0  0  0  0  0
   12.8150   16.3242   20.6293 C   0  0  0  0  0  0  0  0  0  0  0  0
   14.0017   16.4331   21.3748 C   0  0  0  0  0  0  0  0  0  0  0  0
   13.9512   16.3735   22.8446 C   0  0  0  0  0  0  0  0  0  0  0  0
   12.8943   16.2469   23.4526 O   0  0  0  0  0  0  0  0  0  0  0  0
   15.1570   16.4697   23.4880 N   0  0  0  0  0  0  0  0  0  0  0  0
   11.0709   16.2120   18.3178 H   0  0  0  0  0  0  0  0  0  0  0  0
   15.1616   16.4104   24.4707 H   0  0  0  0  0  0  0  0  0  0  0  0
   18.7079   17.2434   23.1811 C   0  0  0  0  0  0  0  0  0  0  0  0
   17.4414   16.7391   23.6678 N   0  0  0  0  0  0  0  0  0  0  0  0
   17.3639   16.4596   24.6086 H   0  0  0  0  0  0  0  0  0  0  0  0
   12.0442   16.4114   15.8674 N   0  0  0  0  0  0  0  0  0  0  0  0
   12.0378   15.1640   15.1270 C   0  0  0  0  0  0  0  0  0  0  0  0
   11.5724   17.2071   15.5305 H   0  0  0  0  0  0  0  0  0  0  0  0
 18 19  1  0
 19  1  1  0
  1  2  2  0
  2  3  1  0
  3  4  2  0
  4  5  1  0
  4  6  1  0
  6  7  1  0
  7  8  2  0
  8 21  1  0
 21 22  1  0
  8  9  1  0
  9 10  1  0
 10 11  1  0
 11 12  2  0
 12 13  1  0
 13 14  2  0
 13 15  1  0
 15  1  1  0
 12  3  1  0
 10  6  2  0
 19 20  1  0
 21 23  1  0
  9 16  1  0
 15 17  1  0
M  END
> <minimizedAffinity>
-7.89224

> <CNNscore>
0.2689302862

> <CNNaffinity>
5.3756957054

> <CNN_VS>
1.4456874132

> <CNNaffinity_variance>
0.1172202826

$$$$



 23 25  0  0  0  0  0  0  0  0999 V2000
   23.6905   17.2606   11.7430 C   0  0  0  0  0  0  0  0  0  0  0  0
   22.7854   16.7488   10.9734 N   0  0  0  0  0  0  0  0  0  0  0  0
   21.6176   17.4853   10.6896 C   0  0  0  0  0  0  0  0  0  0  0  0
   20.6277   16.9282    9.8636 C   0  0  0  0  0  0  0  0  0  0  0  0
   20.7968   15.6974    9.3519 F   0  0  0  0  0  0  0  0  0  0  0  0
   19.4581   17.6557    9.5728 C   0  0  0  0  0  0  0  0  0  0  0  0
   18.3627   17.3312    8.8021 N   0  0  0  0  0  0  0  0  0  0  0  0
   17.5571   18.3630    8.8668 C   0  0  0  0  0  0  0  0  0  0  0  0
   18.0896   19.3533    9.6483 N   0  0  0  0  0  0  0  0  0  0  0  0
   19.3060   18.9278   10.1180 C   0  0  0  0  0  0  0  0  0  0  0  0
   20.2584   19.5268   10.9426 C   0  0  0  0  0  0  0  0  0  0  0  0
   21.4107   18.7673   11.2095 C   0  0  0  0  0  0  0  0  0  0  0  0
   22.4682   19.3194   12.0716 C   0  0  0  0  0  0  0  0  0  0  0  0
   22.3874   20.4410   12.5597 O   0  0  0  0  0  0  0  0  0  0  0  0
   23.5462   18.5030   12.2919 N   0  0  0  0  0  0  0  0  0  0  0  0
   17.6704   20.2232    9.8404 H   0  0  0  0  0  0  0  0  0  0  0  0
   24.2615   18.8324   12.8828 H   0  0  0  0  0  0  0  0  0  0  0  0
   26.1413   17.1649   11.7333 C   0  0  0  0  0  0  0  0  0  0  0  0
   24.8458   16.6102   12.0639 N   0  0  0  0  0  0  0  0  0  0  0  0
   24.7975   15.7447   12.5306 H   0  0  0  0  0  0  0  0  0  0  0  0
   16.3581   18.5397    8.2800 N   0  0  0  0  0  0  0  0  0  0  0  0
   15.5083   19.5970    8.7937 C   0  0  0  0  0  0  0  0  0  0  0  0
   16.0688   17.9719    7.5295 H   0  0  0  0  0  0  0  0  0  0  0  0
 18 19  1  0
 19  1  1  0
  1  2  2  0
  2  3  1  0
  3  4  2  0
  4  5  1  0
  4  6  1  0
  6  7  1  0
  7  8  2  0
  8 21  1  0
 21 22  1  0
  8  9  1  0
  9 10  1  0
 10 11  1  0
 11 12  2  0
 12 13  1  0
 13 14  2  0
 13 15  1  0
 15  1  1  0
 12  3  1  0
 10  6  2  0
 19 20  1  0
 21 23  1  0
  9 16  1  0
 15 17  1  0
M  END
> <minimizedAffinity>
-5.23898

> <CNNscore>
0.2580997646

> <CNNaffinity>
5.0132846832

> <CNN_VS>
1.2939275503

> <CNNaffinity_variance>
0.0883686766

$$$$



 23 25  0  0  0  0  0  0  0  0999 V2000
   14.4665   20.1586   12.7256 C   0  0  0  0  0  0  0  0  0  0  0  0
   13.7620   19.9313   13.7865 N   0  0  0  0  0  0  0  0  0  0  0  0
   13.8318   18.6686   14.4091 C   0  0  0  0  0  0  0  0  0  0  0  0
   13.0597   18.4146   15.5546 C   0  0  0  0  0  0  0  0  0  0  0  0
   12.2577   19.3731   16.0481 F   0  0  0  0  0  0  0  0  0  0  0  0
   13.1227   17.1575   16.1849 C   0  0  0  0  0  0  0  0  0  0  0  0
   12.4741   16.6750   17.3010 N   0  0  0  0  0  0  0  0  0  0  0  0
   12.8904   15.4418   17.4558 C   0  0  0  0  0  0  0  0  0  0  0  0
   13.7928   15.1026   16.4834 N   0  0  0  0  0  0  0  0  0  0  0  0
   13.9594   16.1805   15.6517 C   0  0  0  0  0  0  0  0  0  0  0  0
   14.7468   16.3818   14.5181 C   0  0  0  0  0  0  0  0  0  0  0  0
   14.6543   17.6495   13.9178 C   0  0  0  0  0  0  0  0  0  0  0  0
   15.4485   17.9504   12.7158 C   0  0  0  0  0  0  0  0  0  0  0  0
   16.2120   17.1290   12.2206 O   0  0  0  0  0  0  0  0  0  0  0  0
   15.2819   19.2037   12.1880 N   0  0  0  0  0  0  0  0  0  0  0  0
   14.2452   14.2326   16.3961 H   0  0  0  0  0  0  0  0  0  0  0  0
   15.7811   19.4302   11.3703 H   0  0  0  0  0  0  0  0  0  0  0  0
   15.6734   22.0842   11.8032 C   0  0  0  0  0  0  0  0  0  0  0  0
   14.4523   21.3533   12.0674 N   0  0  0  0  0  0  0  0  0  0  0  0
   13.5928   21.7265   11.7655 H   0  0  0  0  0  0  0  0  0  0  0  0
   12.5562   14.5480   18.4059 N   0  0  0  0  0  0  0  0  0  0  0  0
   13.6346   13.8556   19.0854 C   0  0  0  0  0  0  0  0  0  0  0  0
   11.6144   14.3709   18.6311 H   0  0  0  0  0  0  0  0  0  0  0  0
 18 19  1  0
 19  1  1  0
  1  2  2  0
  2  3  1  0
  3  4  2  0
  4  5  1  0
  4  6  1  0
  6  7  1  0
  7  8  2  0
  8 21  1  0
 21 22  1  0
  8  9  1  0
  9 10  1  0
 10 11  1  0
 11 12  2  0
 12 13  1  0
 13 14  2  0
 13 15  1  0
 15  1  1  0
 12  3  1  0
 10  6  2  0
 19 20  1  0
 21 23  1  0
  9 16  1  0
 15 17  1  0
M  END
> <minimizedAffinity>
-5.63791

> <CNNscore>
0.2236223370

> <CNNaffinity>
5.2499589920

> <CNN_VS>
1.1740081310

> <CNNaffinity_variance>
0.1676263809

$$$$



 23 25  0  0  0  0  0  0  0  0999 V2000
   17.2871   25.9980   22.5065 C   0  0  0  0  0  0  0  0  0  0  0  0
   17.7886   25.1580   21.6603 N   0  0  0  0  0  0  0  0  0  0  0  0
   18.2582   25.6231   20.4152 C   0  0  0  0  0  0  0  0  0  0  0  0
   18.7929   24.7123   19.4894 C   0  0  0  0  0  0  0  0  0  0  0  0
   18.8510   23.4047   19.7929 F   0  0  0  0  0  0  0  0  0  0  0  0
   19.2658   25.1663   18.2437 C   0  0  0  0  0  0  0  0  0  0  0  0
   19.8251   24.4805   17.1872 N   0  0  0  0  0  0  0  0  0  0  0  0
   20.0875   25.3802   16.2709 C   0  0  0  0  0  0  0  0  0  0  0  0
   19.7247   26.6312   16.6932 N   0  0  0  0  0  0  0  0  0  0  0  0
   19.1916   26.5259   17.9525 C   0  0  0  0  0  0  0  0  0  0  0  0
   18.6711   27.4712   18.8364 C   0  0  0  0  0  0  0  0  0  0  0  0
   18.2086   26.9772   20.0685 C   0  0  0  0  0  0  0  0  0  0  0  0
   17.6414   27.9030   21.0622 C   0  0  0  0  0  0  0  0  0  0  0  0
   17.5714   29.1099   20.8585 O   0  0  0  0  0  0  0  0  0  0  0  0
   17.1993   27.3320   22.2265 N   0  0  0  0  0  0  0  0  0  0  0  0
   19.8289   27.4648   16.1799 H   0  0  0  0  0  0  0  0  0  0  0  0
   16.7931   27.9199   22.9037 H   0  0  0  0  0  0  0  0  0  0  0  0
   16.8010   26.5441   24.8477 C   0  0  0  0  0  0  0  0  0  0  0  0
   16.8122   25.6249   23.7296 N   0  0  0  0  0  0  0  0  0  0  0  0
   16.4695   24.7104   23.8546 H   0  0  0  0  0  0  0  0  0  0  0  0
   20.6444   25.2146   15.0562 N   0  0  0  0  0  0  0  0  0  0  0  0
   21.2064   26.3853   14.4099 C   0  0  0  0  0  0  0  0  0  0  0  0
   20.6693   24.3311   14.6225 H   0  0  0  0  0  0  0  0  0  0  0  0
 18 19  1  0
 19  1  1  0
  1  2  2  0
  2  3  1  0
  3  4  2  0
  4  5  1  0
  4  6  1  0
  6  7  1  0
  7  8  2  0
  8 21  1  0
 21 22  1  0
  8  9  1  0
  9 10  1  0
 10 11  1  0
 11 12  2  0
 12 13  1  0
 13 14  2  0
 13 15  1  0
 15  1  1  0
 12  3  1  0
 10  6  2  0
 19 20  1  0
 21 23  1  0
  9 16  1  0
 15 17  1  0
M  END
> <minimizedAffinity>
-4.89562

> <CNNscore>
0.2109446079

> <CNNaffinity>
5.0881457329

> <CNN_VS>
1.0733169317

> <CNNaffinity_variance>
0.1272941679

$$$$
