


 29 29  0  0  0  0  0  0  0  0999 V2000
   39.4406    6.4147    7.8945 C   0  0  0  0  0  0  0  0  0  0  0  0
   38.9253    5.3622    8.6833 C   0  0  0  0  0  0  0  0  0  0  0  0
   39.0851    5.5662    9.9860 N   0  0  0  0  0  0  0  0  0  0  0  0
   39.7320    6.7802   10.0821 O   0  0  0  0  0  0  0  0  0  0  0  0
   39.9539    7.2962    8.8355 C   0  0  0  0  0  0  0  0  0  0  0  0
   40.7004    8.6113    8.7882 C   0  0  0  0  0  0  0  0  0  0  0  0
   42.1409    8.4587    9.3254 C   0  0  0  0  0  0  0  0  0  0  0  0
   40.7826    9.1012    7.3310 C   0  0  0  0  0  0  0  0  0  0  0  0
   39.9954    9.6752    9.6474 C   0  0  0  0  0  0  0  0  0  0  0  0
   39.4363    6.5004    6.4038 C   0  0  0  0  0  0  0  0  0  0  0  0
   39.7364    5.1485    5.7022 C   0  0  0  0  0  0  0  0  0  0  0  0
   41.1584    5.0696    5.3617 N   0  0  0  0  0  0  0  0  0  0  0  0
   41.4000    5.8347    4.7319 H   0  0  0  0  0  0  0  0  0  0  0  0
   41.3493    4.1786    4.9034 H   0  0  0  0  0  0  0  0  0  0  0  0
   38.8227    4.9997    4.4600 C   0  0  0  0  0  0  0  0  0  0  0  0
   37.4007    4.3774    4.6291 C   0  0  0  0  0  0  0  0  0  0  0  0
   37.4562    2.9722    5.2584 C   0  0  0  0  0  0  0  0  0  0  0  0
   36.5069    5.2756    5.5091 C   0  0  0  0  0  0  0  0  0  0  0  0
   36.7127    4.2800    3.2278 C   0  0  0  0  0  0  0  0  0  0  0  0
   34.6435    5.3540    2.2656 C   0  0  0  0  0  0  0  0  0  0  0  0
   35.1792    4.3102    3.2359 C   0  0  0  0  0  0  0  0  0  0  0  0
   38.3552    4.2303    8.2138 O   0  0  0  0  0  0  0  0  0  0  0  0
   37.4853    3.5612    9.1361 C   0  0  0  0  0  0  0  0  0  0  0  0
   38.2386    1.9969    9.5744 P   0  0  0  0  0  0  0  0  0  0  0  0
   38.9882    1.8762   10.8568 O   0  0  0  0  0  0  0  0  0  0  0  0
   37.0387    0.9342    9.4570 O   0  0  0  0  0  0  0  0  0  0  0  0
   39.0942    1.5667    8.2791 O   0  0  0  0  0  0  0  0  0  0  0  0
   36.4167    1.0667   10.1894 H   0  0  0  0  0  0  0  0  0  0  0  0
   39.8784    2.1330    8.2069 H   0  0  0  0  0  0  0  0  0  0  0  0
 20 21  1  0
 21 19  1  0
 19 16  1  0
 16 17  1  0
 16 18  1  0
 16 15  1  0
 15 11  1  0
 11 12  1  0
 11 10  1  0
 10  1  1  0
  1  2  1  0
  2 22  1  0
 22 23  1  0
 23 24  1  0
 24 25  2  0
 24 26  1  0
 24 27  1  0
  2  3  2  0
  3  4  1  0
  4  5  1  0
  5  6  1  0
  6  7  1  0
  6  8  1  0
  6  9  1  0
  5  1  2  0
 12 13  1  0
 12 14  1  0
 26 28  1  0
 27 29  1  0
M  END
> <minimizedAffinity>
-7.02675

> <CNNscore>
0.5368536711

> <CNNaffinity>
6.1155090332

> <CNN_VS>
3.2831335068

> <CNNaffinity_variance>
0.0529225506

$$$$



 29 29  0  0  0  0  0  0  0  0999 V2000
   39.4284    6.3698    7.8955 C   0  0  0  0  0  0  0  0  0  0  0  0
   38.9447    5.3071    8.6906 C   0  0  0  0  0  0  0  0  0  0  0  0
   39.1532    5.4960    9.9887 N   0  0  0  0  0  0  0  0  0  0  0  0
   39.8014    6.7100   10.0748 O   0  0  0  0  0  0  0  0  0  0  0  0
   39.9755    7.2411    8.8269 C   0  0  0  0  0  0  0  0  0  0  0  0
   40.7179    8.5581    8.7672 C   0  0  0  0  0  0  0  0  0  0  0  0
   40.0151    9.6378    9.6199 C   0  0  0  0  0  0  0  0  0  0  0  0
   42.1435    8.3675    9.3164 C   0  0  0  0  0  0  0  0  0  0  0  0
   40.7912    9.0830    7.3228 C   0  0  0  0  0  0  0  0  0  0  0  0
   39.3680    6.4732    6.4071 C   0  0  0  0  0  0  0  0  0  0  0  0
   39.7143    5.1476    5.6771 C   0  0  0  0  0  0  0  0  0  0  0  0
   41.1398    5.1213    5.3435 N   0  0  0  0  0  0  0  0  0  0  0  0
   41.3606    5.9076    4.7325 H   0  0  0  0  0  0  0  0  0  0  0  0
   41.3612    4.2473    4.8663 H   0  0  0  0  0  0  0  0  0  0  0  0
   38.8123    4.9984    4.4264 C   0  0  0  0  0  0  0  0  0  0  0  0
   37.4912    4.1731    4.5326 C   0  0  0  0  0  0  0  0  0  0  0  0
   36.4878    4.8125    5.5115 C   0  0  0  0  0  0  0  0  0  0  0  0
   36.8139    4.0368    3.1532 C   0  0  0  0  0  0  0  0  0  0  0  0
   37.8273    2.7261    5.0222 C   0  0  0  0  0  0  0  0  0  0  0  0
   39.6915    1.5135    3.8326 C   0  0  0  0  0  0  0  0  0  0  0  0
   38.1856    1.7182    3.9229 C   0  0  0  0  0  0  0  0  0  0  0  0
   38.3590    4.1798    8.2294 O   0  0  0  0  0  0  0  0  0  0  0  0
   37.3968    3.5904    9.1137 C   0  0  0  0  0  0  0  0  0  0  0  0
   37.9091    1.9076    9.4492 P   0  0  0  0  0  0  0  0  0  0  0  0
   36.9006    0.8110    9.4095 O   0  0  0  0  0  0  0  0  0  0  0  0
   39.1336    1.6587    8.4386 O   0  0  0  0  0  0  0  0  0  0  0  0
   38.7275    1.9874   10.8344 O   0  0  0  0  0  0  0  0  0  0  0  0
   38.7953    1.5858    7.5325 H   0  0  0  0  0  0  0  0  0  0  0  0
   38.1098    2.1395   11.5666 H   0  0  0  0  0  0  0  0  0  0  0  0
 20 21  1  0
 21 19  1  0
 19 16  1  0
 16 17  1  0
 16 18  1  0
 16 15  1  0
 15 11  1  0
 11 12  1  0
 11 10  1  0
 10  1  1  0
  1  2  1  0
  2 22  1  0
 22 23  1  0
 23 24  1  0
 24 25  2  0
 24 26  1  0
 24 27  1  0
  2  3  2  0
  3  4  1  0
  4  5  1  0
  5  6  1  0
  6  7  1  0
  6  8  1  0
  6  9  1  0
  5  1  2  0
 12 13  1  0
 12 14  1  0
 26 28  1  0
 27 29  1  0
M  END
> <minimizedAffinity>
-6.93436

> <CNNscore>
0.5359755158

> <CNNaffinity>
6.1252098083

> <CNN_VS>
3.2829625607

> <CNNaffinity_variance>
0.1003338471

$$$$



 29 29  0  0  0  0  0  0  0  0999 V2000
   38.5709    4.2079    8.0072 C   0  0  0  0  0  0  0  0  0  0  0  0
   38.5242    2.9445    8.6372 C   0  0  0  0  0  0  0  0  0  0  0  0
   38.8314    1.9460    7.8170 N   0  0  0  0  0  0  0  0  0  0  0  0
   39.0829    2.5453    6.6009 O   0  0  0  0  0  0  0  0  0  0  0  0
   38.9261    3.8999    6.7015 C   0  0  0  0  0  0  0  0  0  0  0  0
   39.1275    4.6849    5.4239 C   0  0  0  0  0  0  0  0  0  0  0  0
   39.4773    3.7534    4.2420 C   0  0  0  0  0  0  0  0  0  0  0  0
   37.8295    5.4352    5.0739 C   0  0  0  0  0  0  0  0  0  0  0  0
   40.2784    5.6949    5.5746 C   0  0  0  0  0  0  0  0  0  0  0  0
   38.2728    5.5309    8.6321 C   0  0  0  0  0  0  0  0  0  0  0  0
   39.3470    5.9925    9.6533 C   0  0  0  0  0  0  0  0  0  0  0  0
   38.6972    6.5555   10.8385 N   0  0  0  0  0  0  0  0  0  0  0  0
   38.1281    7.3569   10.5659 H   0  0  0  0  0  0  0  0  0  0  0  0
   39.4079    6.8546   11.5062 H   0  0  0  0  0  0  0  0  0  0  0  0
   40.3059    7.0001    8.9711 C   0  0  0  0  0  0  0  0  0  0  0  0
   39.7430    8.3651    8.4633 C   0  0  0  0  0  0  0  0  0  0  0  0
   39.3402    9.2922    9.6259 C   0  0  0  0  0  0  0  0  0  0  0  0
   40.7802    9.0973    7.5868 C   0  0  0  0  0  0  0  0  0  0  0  0
   38.4897    8.1017    7.5653 C   0  0  0  0  0  0  0  0  0  0  0  0
   36.0074    8.3044    7.1678 C   0  0  0  0  0  0  0  0  0  0  0  0
   37.1535    8.6078    8.1229 C   0  0  0  0  0  0  0  0  0  0  0  0
   38.1745    2.7161    9.9226 O   0  0  0  0  0  0  0  0  0  0  0  0
   36.8244    3.0650   10.2555 C   0  0  0  0  0  0  0  0  0  0  0  0
   35.8440    1.5667   10.2394 P   0  0  0  0  0  0  0  0  0  0  0  0
   36.3460    0.3680    9.5099 O   0  0  0  0  0  0  0  0  0  0  0  0
   35.5523    1.2689   11.7915 O   0  0  0  0  0  0  0  0  0  0  0  0
   34.3715    2.0347    9.7836 O   0  0  0  0  0  0  0  0  0  0  0  0
   36.3678    0.9674   12.2216 H   0  0  0  0  0  0  0  0  0  0  0  0
   34.3807    2.2569    8.8394 H   0  0  0  0  0  0  0  0  0  0  0  0
 20 21  1  0
 21 19  1  0
 19 16  1  0
 16 17  1  0
 16 18  1  0
 16 15  1  0
 15 11  1  0
 11 12  1  0
 11 10  1  0
 10  1  1  0
  1  2  1  0
  2 22  1  0
 22 23  1  0
 23 24  1  0
 24 25  2  0
 24 26  1  0
 24 27  1  0
  2  3  2  0
  3  4  1  0
  4  5  1  0
  5  6  1  0
  6  7  1  0
  6  8  1  0
  6  9  1  0
  5  1  2  0
 12 13  1  0
 12 14  1  0
 26 28  1  0
 27 29  1  0
M  END
> <minimizedAffinity>
-6.60558

> <CNNscore>
0.2537110448

> <CNNaffinity>
5.5346837044

> <CNN_VS>
1.4042103291

> <CNNaffinity_variance>
0.0324483961

$$$$



 29 29  0  0  0  0  0  0  0  0999 V2000
   36.7437    3.0242    6.4410 C   0  0  0  0  0  0  0  0  0  0  0  0
   35.9942    2.4127    7.4704 C   0  0  0  0  0  0  0  0  0  0  0  0
   35.5438    1.2085    7.1367 N   0  0  0  0  0  0  0  0  0  0  0  0
   35.9903    1.0030    5.8484 O   0  0  0  0  0  0  0  0  0  0  0  0
   36.7069    2.0856    5.4194 C   0  0  0  0  0  0  0  0  0  0  0  0
   37.2218    2.0161    3.9985 C   0  0  0  0  0  0  0  0  0  0  0  0
   36.8752    0.6614    3.3415 C   0  0  0  0  0  0  0  0  0  0  0  0
   36.5713    3.1336    3.1629 C   0  0  0  0  0  0  0  0  0  0  0  0
   38.7520    2.1722    3.9598 C   0  0  0  0  0  0  0  0  0  0  0  0
   37.3811    4.3740    6.4792 C   0  0  0  0  0  0  0  0  0  0  0  0
   38.8210    4.3656    7.0593 C   0  0  0  0  0  0  0  0  0  0  0  0
   38.8131    3.7808    8.4016 N   0  0  0  0  0  0  0  0  0  0  0  0
   38.2101    4.3345    9.0101 H   0  0  0  0  0  0  0  0  0  0  0  0
   39.7619    3.7762    8.7761 H   0  0  0  0  0  0  0  0  0  0  0  0
   39.3890    5.8069    7.0465 C   0  0  0  0  0  0  0  0  0  0  0  0
   38.9018    6.8286    8.1220 C   0  0  0  0  0  0  0  0  0  0  0  0
   38.3619    8.1237    7.4856 C   0  0  0  0  0  0  0  0  0  0  0  0
   37.7944    6.2149    9.0036 C   0  0  0  0  0  0  0  0  0  0  0  0
   40.0945    7.1861    9.0685 C   0  0  0  0  0  0  0  0  0  0  0  0
   42.0010    8.5162    8.0904 C   0  0  0  0  0  0  0  0  0  0  0  0
   40.6999    8.5824    8.8779 C   0  0  0  0  0  0  0  0  0  0  0  0
   35.7047    2.9638    8.6700 O   0  0  0  0  0  0  0  0  0  0  0  0
   34.6634    2.3070    9.4043 C   0  0  0  0  0  0  0  0  0  0  0  0
   35.4301    1.2059   10.5902 P   0  0  0  0  0  0  0  0  0  0  0  0
   34.5733    0.3505   11.4593 O   0  0  0  0  0  0  0  0  0  0  0  0
   36.4743    0.3510    9.7176 O   0  0  0  0  0  0  0  0  0  0  0  0
   36.4681    2.1278   11.4074 O   0  0  0  0  0  0  0  0  0  0  0  0
   35.9902   -0.2719    9.1531 H   0  0  0  0  0  0  0  0  0  0  0  0
   35.9780    2.7202   11.9988 H   0  0  0  0  0  0  0  0  0  0  0  0
 20 21  1  0
 21 19  1  0
 19 16  1  0
 16 17  1  0
 16 18  1  0
 16 15  1  0
 15 11  1  0
 11 12  1  0
 11 10  1  0
 10  1  1  0
  1  2  1  0
  2 22  1  0
 22 23  1  0
 23 24  1  0
 24 25  2  0
 24 26  1  0
 24 27  1  0
  2  3  2  0
  3  4  1  0
  4  5  1  0
  5  6  1  0
  6  7  1  0
  6  8  1  0
  6  9  1  0
  5  1  2  0
 12 13  1  0
 12 14  1  0
 26 28  1  0
 27 29  1  0
M  END
> <minimizedAffinity>
-6.01191

> <CNNscore>
0.2336968929

> <CNNaffinity>
5.3111538887

> <CNN_VS>
1.2412002087

> <CNNaffinity_variance>
0.8374402523

$$$$



 29 29  0  0  0  0  0  0  0  0999 V2000
   37.5842    2.9561    8.4636 C   0  0  0  0  0  0  0  0  0  0  0  0
   37.9910    2.4534    7.2076 C   0  0  0  0  0  0  0  0  0  0  0  0
   37.1174    1.6005    6.6845 N   0  0  0  0  0  0  0  0  0  0  0  0
   36.0999    1.5158    7.6112 O   0  0  0  0  0  0  0  0  0  0  0  0
   36.3703    2.3204    8.6832 C   0  0  0  0  0  0  0  0  0  0  0  0
   35.3544    2.2912    9.8040 C   0  0  0  0  0  0  0  0  0  0  0  0
   35.6784    3.3483   10.8831 C   0  0  0  0  0  0  0  0  0  0  0  0
   33.9569    2.5995    9.2365 C   0  0  0  0  0  0  0  0  0  0  0  0
   35.3354    0.9157   10.4932 C   0  0  0  0  0  0  0  0  0  0  0  0
   38.3307    3.9196    9.3261 C   0  0  0  0  0  0  0  0  0  0  0  0
   38.1596    5.4013    8.8956 C   0  0  0  0  0  0  0  0  0  0  0  0
   36.9061    5.5629    8.1563 N   0  0  0  0  0  0  0  0  0  0  0  0
   36.9233    4.9725    7.3248 H   0  0  0  0  0  0  0  0  0  0  0  0
   36.7986    6.5384    7.8784 H   0  0  0  0  0  0  0  0  0  0  0  0
   39.3936    5.8426    8.0693 C   0  0  0  0  0  0  0  0  0  0  0  0
   39.1973    6.8205    6.8680 C   0  0  0  0  0  0  0  0  0  0  0  0
   38.7473    6.0845    5.5916 C   0  0  0  0  0  0  0  0  0  0  0  0
   38.1529    7.9049    7.2049 C   0  0  0  0  0  0  0  0  0  0  0  0
   40.5462    7.5584    6.5806 C   0  0  0  0  0  0  0  0  0  0  0  0
   41.9806    8.6342    8.3543 C   0  0  0  0  0  0  0  0  0  0  0  0
   40.8023    8.8235    7.4091 C   0  0  0  0  0  0  0  0  0  0  0  0
   39.1506    2.7465    6.5784 O   0  0  0  0  0  0  0  0  0  0  0  0
   39.6258    1.7355    5.6799 C   0  0  0  0  0  0  0  0  0  0  0  0
   39.3770    2.3196    4.0055 P   0  0  0  0  0  0  0  0  0  0  0  0
   38.0157    2.7411    3.5692 O   0  0  0  0  0  0  0  0  0  0  0  0
   40.4717    3.4824    3.8261 O   0  0  0  0  0  0  0  0  0  0  0  0
   40.0399    1.1916    3.0657 O   0  0  0  0  0  0  0  0  0  0  0  0
   40.2088    4.2571    4.3473 H   0  0  0  0  0  0  0  0  0  0  0  0
   39.4803    0.3994    3.0677 H   0  0  0  0  0  0  0  0  0  0  0  0
 20 21  1  0
 21 19  1  0
 19 16  1  0
 16 17  1  0
 16 18  1  0
 16 15  1  0
 15 11  1  0
 11 12  1  0
 11 10  1  0
 10  1  1  0
  1  2  1  0
  2 22  1  0
 22 23  1  0
 23 24  1  0
 24 25  2  0
 24 26  1  0
 24 27  1  0
  2  3  2  0
  3  4  1  0
  4  5  1  0
  5  6  1  0
  6  7  1  0
  6  8  1  0
  6  9  1  0
  5  1  2  0
 12 13  1  0
 12 14  1  0
 26 28  1  0
 27 29  1  0
M  END
> <minimizedAffinity>
-6.86041

> <CNNscore>
0.1881145090

> <CNNaffinity>
5.4047279358

> <CNN_VS>
1.0167077780

> <CNNaffinity_variance>
0.0957639888

$$$$



 29 29  0  0  0  0  0  0  0  0999 V2000
   36.4242    2.7567    8.7668 C   0  0  0  0  0  0  0  0  0  0  0  0
   36.8996    1.7972    9.6880 C   0  0  0  0  0  0  0  0  0  0  0  0
   36.2136    1.7880   10.8254 N   0  0  0  0  0  0  0  0  0  0  0  0
   35.2574    2.7702   10.6754 O   0  0  0  0  0  0  0  0  0  0  0  0
   35.3763    3.3603    9.4476 C   0  0  0  0  0  0  0  0  0  0  0  0
   34.4144    4.4929    9.1633 C   0  0  0  0  0  0  0  0  0  0  0  0
   33.0827    3.9663    8.5835 C   0  0  0  0  0  0  0  0  0  0  0  0
   34.1036    5.2416   10.4722 C   0  0  0  0  0  0  0  0  0  0  0  0
   35.0092    5.4757    8.1398 C   0  0  0  0  0  0  0  0  0  0  0  0
   36.9703    3.0378    7.4058 C   0  0  0  0  0  0  0  0  0  0  0  0
   38.4171    3.6005    7.4202 C   0  0  0  0  0  0  0  0  0  0  0  0
   38.4281    4.9288    8.0363 N   0  0  0  0  0  0  0  0  0  0  0  0
   37.8297    5.5572    7.5002 H   0  0  0  0  0  0  0  0  0  0  0  0
   39.3812    5.2918    8.0448 H   0  0  0  0  0  0  0  0  0  0  0  0
   38.9778    3.6148    5.9761 C   0  0  0  0  0  0  0  0  0  0  0  0
   38.6391    4.8162    5.0380 C   0  0  0  0  0  0  0  0  0  0  0  0
   39.4607    4.7813    3.7352 C   0  0  0  0  0  0  0  0  0  0  0  0
   37.1399    4.8257    4.6740 C   0  0  0  0  0  0  0  0  0  0  0  0
   38.9356    6.1550    5.7904 C   0  0  0  0  0  0  0  0  0  0  0  0
   40.7423    7.6490    6.7202 C   0  0  0  0  0  0  0  0  0  0  0  0
   40.3295    6.7525    5.5611 C   0  0  0  0  0  0  0  0  0  0  0  0
   37.9574    0.9776    9.4985 O   0  0  0  0  0  0  0  0  0  0  0  0
   39.2062    1.4729    9.9987 C   0  0  0  0  0  0  0  0  0  0  0  0
   40.4860    0.3023    9.5534 P   0  0  0  0  0  0  0  0  0  0  0  0
   41.7992    0.3467   10.2567 O   0  0  0  0  0  0  0  0  0  0  0  0
   39.7689   -1.1310    9.6723 O   0  0  0  0  0  0  0  0  0  0  0  0
   40.6045    0.4012    7.9499 O   0  0  0  0  0  0  0  0  0  0  0  0
   39.6231   -1.3430   10.6075 H   0  0  0  0  0  0  0  0  0  0  0  0
   41.0308    1.2383    7.7083 H   0  0  0  0  0  0  0  0  0  0  0  0
 20 21  1  0
 21 19  1  0
 19 16  1  0
 16 17  1  0
 16 18  1  0
 16 15  1  0
 15 11  1  0
 11 12  1  0
 11 10  1  0
 10  1  1  0
  1  2  1  0
  2 22  1  0
 22 23  1  0
 23 24  1  0
 24 25  2  0
 24 26  1  0
 24 27  1  0
  2  3  2  0
  3  4  1  0
  4  5  1  0
  5  6  1  0
  6  7  1  0
  6  8  1  0
  6  9  1  0
  5  1  2  0
 12 13  1  0
 12 14  1  0
 26 28  1  0
 27 29  1  0
M  END
> <minimizedAffinity>
-6.41518

> <CNNscore>
0.1867834926

> <CNNaffinity>
4.7200016975

> <CNN_VS>
0.8816183805

> <CNNaffinity_variance>
0.7011902332

$$$$



 29 29  0  0  0  0  0  0  0  0999 V2000
   38.3466    5.9312    6.5190 C   0  0  0  0  0  0  0  0  0  0  0  0
   38.7789    5.5187    5.2390 C   0  0  0  0  0  0  0  0  0  0  0  0
   39.9037    6.1128    4.8568 N   0  0  0  0  0  0  0  0  0  0  0  0
   40.2363    6.9542    5.8974 O   0  0  0  0  0  0  0  0  0  0  0  0
   39.3087    6.8570    6.8973 C   0  0  0  0  0  0  0  0  0  0  0  0
   39.5247    7.7637    8.0890 C   0  0  0  0  0  0  0  0  0  0  0  0
   38.2011    8.4182    8.5437 C   0  0  0  0  0  0  0  0  0  0  0  0
   40.0798    6.9398    9.2652 C   0  0  0  0  0  0  0  0  0  0  0  0
   40.5086    8.8962    7.7474 C   0  0  0  0  0  0  0  0  0  0  0  0
   37.1224    5.4727    7.2408 C   0  0  0  0  0  0  0  0  0  0  0  0
   37.4135    4.4479    8.3701 C   0  0  0  0  0  0  0  0  0  0  0  0
   38.7451    3.8680    8.1844 N   0  0  0  0  0  0  0  0  0  0  0  0
   38.7865    3.3933    7.2826 H   0  0  0  0  0  0  0  0  0  0  0  0
   38.9311    3.1977    8.9304 H   0  0  0  0  0  0  0  0  0  0  0  0
   36.2985    3.3725    8.3886 C   0  0  0  0  0  0  0  0  0  0  0  0
   35.5597    3.0625    9.7288 C   0  0  0  0  0  0  0  0  0  0  0  0
   35.5796    1.5590   10.0649 C   0  0  0  0  0  0  0  0  0  0  0  0
   36.1963    3.8372   10.9012 C   0  0  0  0  0  0  0  0  0  0  0  0
   34.0741    3.5392    9.6186 C   0  0  0  0  0  0  0  0  0  0  0  0
   32.9966    5.6938   10.3650 C   0  0  0  0  0  0  0  0  0  0  0  0
   33.8742    5.0290    9.3136 C   0  0  0  0  0  0  0  0  0  0  0  0
   38.1359    4.6454    4.4324 O   0  0  0  0  0  0  0  0  0  0  0  0
   38.1597    3.2815    4.8731 C   0  0  0  0  0  0  0  0  0  0  0  0
   39.4707    2.4368    3.9932 P   0  0  0  0  0  0  0  0  0  0  0  0
   39.1276    1.3661    3.0149 O   0  0  0  0  0  0  0  0  0  0  0  0
   40.3326    3.6228    3.3350 O   0  0  0  0  0  0  0  0  0  0  0  0
   40.5056    1.9662    5.1345 O   0  0  0  0  0  0  0  0  0  0  0  0
   39.8306    4.0218    2.6072 H   0  0  0  0  0  0  0  0  0  0  0  0
   40.1203    1.2315    5.6372 H   0  0  0  0  0  0  0  0  0  0  0  0
 20 21  1  0
 21 19  1  0
 19 16  1  0
 16 17  1  0
 16 18  1  0
 16 15  1  0
 15 11  1  0
 11 12  1  0
 11 10  1  0
 10  1  1  0
  1  2  1  0
  2 22  1  0
 22 23  1  0
 23 24  1  0
 24 25  2  0
 24 26  1  0
 24 27  1  0
  2  3  2  0
  3  4  1  0
  4  5  1  0
  5  6  1  0
  6  7  1  0
  6  8  1  0
  6  9  1  0
  5  1  2  0
 12 13  1  0
 12 14  1  0
 26 28  1  0
 27 29  1  0
M  END
> <minimizedAffinity>
-6.32736

> <CNNscore>
0.1511717141

> <CNNaffinity>
5.1654953957

> <CNN_VS>
0.7808768153

> <CNNaffinity_variance>
0.5040249228

$$$$



 29 29  0  0  0  0  0  0  0  0999 V2000
   38.5614    5.7734    5.4594 C   0  0  0  0  0  0  0  0  0  0  0  0
   39.0881    6.7117    6.3747 C   0  0  0  0  0  0  0  0  0  0  0  0
   38.1490    7.3146    7.0951 N   0  0  0  0  0  0  0  0  0  0  0  0
   36.9580    6.7797    6.6514 O   0  0  0  0  0  0  0  0  0  0  0  0
   37.1921    5.8581    5.6687 C   0  0  0  0  0  0  0  0  0  0  0  0
   35.9649    5.2207    5.0551 C   0  0  0  0  0  0  0  0  0  0  0  0
   35.5194    3.9762    5.8548 C   0  0  0  0  0  0  0  0  0  0  0  0
   34.8052    6.2332    5.0602 C   0  0  0  0  0  0  0  0  0  0  0  0
   36.2439    4.7684    3.6111 C   0  0  0  0  0  0  0  0  0  0  0  0
   39.3329    4.9337    4.4954 C   0  0  0  0  0  0  0  0  0  0  0  0
   39.6436    3.5072    5.0234 C   0  0  0  0  0  0  0  0  0  0  0  0
   40.8569    3.5334    5.8427 N   0  0  0  0  0  0  0  0  0  0  0  0
   41.6413    3.8598    5.2783 H   0  0  0  0  0  0  0  0  0  0  0  0
   41.0542    2.5942    6.1882 H   0  0  0  0  0  0  0  0  0  0  0  0
   39.7601    2.5300    3.8269 C   0  0  0  0  0  0  0  0  0  0  0  0
   39.2398    1.0662    3.9839 C   0  0  0  0  0  0  0  0  0  0  0  0
   40.1276    0.2361    4.9307 C   0  0  0  0  0  0  0  0  0  0  0  0
   37.7947    1.0497    4.5239 C   0  0  0  0  0  0  0  0  0  0  0  0
   39.2113    0.3778    2.5797 C   0  0  0  0  0  0  0  0  0  0  0  0
   37.5125   -0.2151    0.8125 C   0  0  0  0  0  0  0  0  0  0  0  0
   37.9442   -0.4241    2.2574 C   0  0  0  0  0  0  0  0  0  0  0  0
   40.3944    7.0278    6.5169 O   0  0  0  0  0  0  0  0  0  0  0  0
   40.6486    8.3461    7.0195 C   0  0  0  0  0  0  0  0  0  0  0  0
   41.3156    8.1903    8.6740 P   0  0  0  0  0  0  0  0  0  0  0  0
   42.7845    8.3210    8.8892 O   0  0  0  0  0  0  0  0  0  0  0  0
   40.4671    9.2431    9.5425 O   0  0  0  0  0  0  0  0  0  0  0  0
   40.6945    6.8194    9.2484 O   0  0  0  0  0  0  0  0  0  0  0  0
   40.7326   10.1456    9.3061 H   0  0  0  0  0  0  0  0  0  0  0  0
   41.1167    6.0644    8.8097 H   0  0  0  0  0  0  0  0  0  0  0  0
 20 21  1  0
 21 19  1  0
 19 16  1  0
 16 17  1  0
 16 18  1  0
 16 15  1  0
 15 11  1  0
 11 12  1  0
 11 10  1  0
 10  1  1  0
  1  2  1  0
  2 22  1  0
 22 23  1  0
 23 24  1  0
 24 25  2  0
 24 26  1  0
 24 27  1  0
  2  3  2  0
  3  4  1  0
  4  5  1  0
  5  6  1  0
  6  7  1  0
  6  8  1  0
  6  9  1  0
  5  1  2  0
 12 13  1  0
 12 14  1  0
 26 28  1  0
 27 29  1  0
M  END
> <minimizedAffinity>
-6.38682

> <CNNscore>
0.1375828087

> <CNNaffinity>
4.3478088379

> <CNN_VS>
0.5981837511

> <CNNaffinity_variance>
0.4409064353

$$$$



 29 29  0  0  0  0  0  0  0  0999 V2000
   35.8569    4.6236    3.8237 C   0  0  0  0  0  0  0  0  0  0  0  0
   36.8330    3.6110    3.6923 C   0  0  0  0  0  0  0  0  0  0  0  0
   36.6981    2.9045    2.5757 N   0  0  0  0  0  0  0  0  0  0  0  0
   35.5999    3.4444    1.9402 O   0  0  0  0  0  0  0  0  0  0  0  0
   35.0850    4.4724    2.6803 C   0  0  0  0  0  0  0  0  0  0  0  0
   33.8429    5.1312    2.1216 C   0  0  0  0  0  0  0  0  0  0  0  0
   32.5629    4.5518    2.7642 C   0  0  0  0  0  0  0  0  0  0  0  0
   33.8863    6.6411    2.4190 C   0  0  0  0  0  0  0  0  0  0  0  0
   33.7396    4.9110    0.6024 C   0  0  0  0  0  0  0  0  0  0  0  0
   35.7128    5.5859    4.9563 C   0  0  0  0  0  0  0  0  0  0  0  0
   36.6207    5.2564    6.1717 C   0  0  0  0  0  0  0  0  0  0  0  0
   35.8843    4.4346    7.1342 N   0  0  0  0  0  0  0  0  0  0  0  0
   35.0628    4.9448    7.4585 H   0  0  0  0  0  0  0  0  0  0  0  0
   36.4867    4.2197    7.9289 H   0  0  0  0  0  0  0  0  0  0  0  0
   37.1413    6.5747    6.7973 C   0  0  0  0  0  0  0  0  0  0  0  0
   38.6724    6.7466    7.0504 C   0  0  0  0  0  0  0  0  0  0  0  0
   39.5142    6.2468    5.8607 C   0  0  0  0  0  0  0  0  0  0  0  0
   39.0247    8.2249    7.3157 C   0  0  0  0  0  0  0  0  0  0  0  0
   39.0747    5.9435    8.3309 C   0  0  0  0  0  0  0  0  0  0  0  0
   38.7940    6.0041   10.8365 C   0  0  0  0  0  0  0  0  0  0  0  0
   38.0764    6.0017    9.4938 C   0  0  0  0  0  0  0  0  0  0  0  0
   37.7990    3.3244    4.5931 O   0  0  0  0  0  0  0  0  0  0  0  0
   37.9438    1.9328    4.9057 C   0  0  0  0  0  0  0  0  0  0  0  0
   39.6863    1.5264    4.8343 P   0  0  0  0  0  0  0  0  0  0  0  0
   40.6492    2.2665    5.6980 O   0  0  0  0  0  0  0  0  0  0  0  0
   39.7317   -0.0616    5.0771 O   0  0  0  0  0  0  0  0  0  0  0  0
   40.0603    1.5604    3.2678 O   0  0  0  0  0  0  0  0  0  0  0  0
   39.5214   -0.2530    6.0045 H   0  0  0  0  0  0  0  0  0  0  0  0
   40.0745    2.4797    2.9586 H   0  0  0  0  0  0  0  0  0  0  0  0
 20 21  1  0
 21 19  1  0
 19 16  1  0
 16 17  1  0
 16 18  1  0
 16 15  1  0
 15 11  1  0
 11 12  1  0
 11 10  1  0
 10  1  1  0
  1  2  1  0
  2 22  1  0
 22 23  1  0
 23 24  1  0
 24 25  2  0
 24 26  1  0
 24 27  1  0
  2  3  2  0
  3  4  1  0
  4  5  1  0
  5  6  1  0
  6  7  1  0
  6  8  1  0
  6  9  1  0
  5  1  2  0
 12 13  1  0
 12 14  1  0
 26 28  1  0
 27 29  1  0
M  END
> <minimizedAffinity>
-5.69564

> <CNNscore>
0.1320043802

> <CNNaffinity>
4.0053853989

> <CNN_VS>
0.5287284255

> <CNNaffinity_variance>
0.8866359591

$$$$
