


 17 17  0  0  0  0  0  0  0  0999 V2000
   30.7165   66.4359    8.3420 C   0  0  0  0  0  0  0  0  0  0  0  0
   30.8967   66.0384    9.8114 C   0  0  0  0  0  0  0  0  0  0  0  0
   31.5012   64.7387    9.8903 O   0  0  0  0  0  0  0  0  0  0  0  0
   29.4442   65.9945   10.3082 C   0  0  0  0  0  0  0  0  0  0  0  0
   29.3246   65.4094   11.6467 N   0  0  0  0  0  0  0  0  0  0  0  0
   28.7572   65.1900    9.1883 C   0  0  0  0  0  0  0  0  0  0  0  0
   29.4478   65.6661    7.8948 C   0  0  0  0  0  0  0  0  0  0  0  0
   29.7558   64.5393    7.0694 O   0  0  0  0  0  0  0  0  0  0  0  0
   30.9668   64.1026    9.3896 H   0  0  0  0  0  0  0  0  0  0  0  0
   29.7248   64.4712   11.6447 H   0  0  0  0  0  0  0  0  0  0  0  0
   28.3401   65.3585   11.9087 H   0  0  0  0  0  0  0  0  0  0  0  0
   30.3244   63.9251    7.5597 H   0  0  0  0  0  0  0  0  0  0  0  0
   26.9617   65.5089    9.1499 S   0  0  0  0  0  0  0  0  0  0  0  0
   26.8528   65.8341    7.3707 C   0  0  0  0  0  0  0  0  0  0  0  0
   26.2658   64.2045    9.4096 O   0  0  0  0  0  0  0  0  0  0  0  0
   33.0632   66.7011    8.1234 C   0  0  0  0  0  0  0  0  0  0  0  0
   31.8878   66.0913    7.5970 O   0  0  0  0  0  0  0  0  0  0  0  0
 16 17  1  0
  1 17  1  0
  1  2  1  0
  2  3  1  0
  2  4  1  0
  4  5  1  0
  4  6  1  0
  6 13  1  0
 13 14  1  0
 13 15  2  0
  6  7  1  0
  7  8  1  0
  7  1  1  0
  3  9  1  0
  5 10  1  0
  5 11  1  0
  8 12  1  0
M  END
> <minimizedAffinity>
-5.59366

> <CNNscore>
0.7743399739

> <CNNaffinity>
5.6780714989

> <CNN_VS>
4.3967576027

> <CNNaffinity_variance>
0.3606390953

$$$$



 17 17  0  0  0  0  0  0  0  0999 V2000
   34.4113   73.0623   16.8368 C   0  0  0  0  0  0  0  0  0  0  0  0
   35.1930   72.0398   17.6694 C   0  0  0  0  0  0  0  0  0  0  0  0
   36.5997   72.1919   17.4260 O   0  0  0  0  0  0  0  0  0  0  0  0
   34.6823   70.7090   17.0980 C   0  0  0  0  0  0  0  0  0  0  0  0
   35.4537   69.5581   17.5761 N   0  0  0  0  0  0  0  0  0  0  0  0
   34.7776   70.9651   15.5818 C   0  0  0  0  0  0  0  0  0  0  0  0
   34.3735   72.4436   15.4162 C   0  0  0  0  0  0  0  0  0  0  0  0
   35.2746   73.0921   14.5144 O   0  0  0  0  0  0  0  0  0  0  0  0
   36.7732   72.1165   16.4747 H   0  0  0  0  0  0  0  0  0  0  0  0
   36.4380   69.6876   17.3419 H   0  0  0  0  0  0  0  0  0  0  0  0
   35.1074   68.7081   17.1312 H   0  0  0  0  0  0  0  0  0  0  0  0
   36.1806   73.0165   14.8526 H   0  0  0  0  0  0  0  0  0  0  0  0
   33.6683   69.8553   14.6519 S   0  0  0  0  0  0  0  0  0  0  0  0
   32.4407   71.1152   14.2175 C   0  0  0  0  0  0  0  0  0  0  0  0
   34.3761   69.4656   13.3869 O   0  0  0  0  0  0  0  0  0  0  0  0
   34.2411   75.3396   17.4772 C   0  0  0  0  0  0  0  0  0  0  0  0
   35.0630   74.3343   16.8902 O   0  0  0  0  0  0  0  0  0  0  0  0
 16 17  1  0
  1 17  1  0
  1  2  1  0
  2  3  1  0
  2  4  1  0
  4  5  1  0
  4  6  1  0
  6 13  1  0
 13 14  1  0
 13 15  2  0
  6  7  1  0
  7  8  1  0
  7  1  1  0
  3  9  1  0
  5 10  1  0
  5 11  1  0
  8 12  1  0
M  END
> <minimizedAffinity>
-4.24831

> <CNNscore>
0.4807125628

> <CNNaffinity>
2.9076423645

> <CNN_VS>
1.3977402449

> <CNNaffinity_variance>
0.6742760539

$$$$



 17 17  0  0  0  0  0  0  0  0999 V2000
   29.3949   66.1640    8.8739 C   0  0  0  0  0  0  0  0  0  0  0  0
   29.9526   65.1485    9.8776 C   0  0  0  0  0  0  0  0  0  0  0  0
   30.0274   63.8528    9.2637 O   0  0  0  0  0  0  0  0  0  0  0  0
   28.8812   65.1688   10.9775 C   0  0  0  0  0  0  0  0  0  0  0  0
   29.0659   64.0999   11.9632 N   0  0  0  0  0  0  0  0  0  0  0  0
   27.5853   65.0675   10.1506 C   0  0  0  0  0  0  0  0  0  0  0  0
   27.8655   65.9137    8.8928 C   0  0  0  0  0  0  0  0  0  0  0  0
   27.4126   65.2145    7.7301 O   0  0  0  0  0  0  0  0  0  0  0  0
   29.1538   63.6059    8.9221 H   0  0  0  0  0  0  0  0  0  0  0  0
   29.0672   63.1967   11.4891 H   0  0  0  0  0  0  0  0  0  0  0  0
   28.3042   64.1270   12.6410 H   0  0  0  0  0  0  0  0  0  0  0  0
   27.8585   64.3548    7.6756 H   0  0  0  0  0  0  0  0  0  0  0  0
   26.1527   65.7023   11.0843 S   0  0  0  0  0  0  0  0  0  0  0  0
   27.0082   67.1148   11.8300 C   0  0  0  0  0  0  0  0  0  0  0  0
   25.1711   66.2487   10.0888 O   0  0  0  0  0  0  0  0  0  0  0  0
   31.2352   66.6448    7.4570 C   0  0  0  0  0  0  0  0  0  0  0  0
   29.9928   65.9596    7.5908 O   0  0  0  0  0  0  0  0  0  0  0  0
 16 17  1  0
  1 17  1  0
  1  2  1  0
  2  3  1  0
  2  4  1  0
  4  5  1  0
  4  6  1  0
  6 13  1  0
 13 14  1  0
 13 15  2  0
  6  7  1  0
  7  8  1  0
  7  1  1  0
  3  9  1  0
  5 10  1  0
  5 11  1  0
  8 12  1  0
M  END
> <minimizedAffinity>
-5.23854

> <CNNscore>
0.3630540371

> <CNNaffinity>
4.3325667381

> <CNN_VS>
1.5729558468

> <CNNaffinity_variance>
0.0767746791

$$$$



 17 17  0  0  0  0  0  0  0  0999 V2000
   26.9113   65.7907   17.3470 C   0  0  0  0  0  0  0  0  0  0  0  0
   26.3875   66.2797   18.7020 C   0  0  0  0  0  0  0  0  0  0  0  0
   26.6257   65.2782   19.7027 O   0  0  0  0  0  0  0  0  0  0  0  0
   24.8840   66.4270   18.4261 C   0  0  0  0  0  0  0  0  0  0  0  0
   24.1089   66.6693   19.6463 N   0  0  0  0  0  0  0  0  0  0  0  0
   24.5675   65.0984   17.7134 C   0  0  0  0  0  0  0  0  0  0  0  0
   25.8092   64.8254   16.8414 C   0  0  0  0  0  0  0  0  0  0  0  0
   26.1900   63.4519   16.9607 O   0  0  0  0  0  0  0  0  0  0  0  0
   26.2256   64.4400   19.4229 H   0  0  0  0  0  0  0  0  0  0  0  0
   24.2730   65.9117   20.3093 H   0  0  0  0  0  0  0  0  0  0  0  0
   23.1161   66.7104   19.4159 H   0  0  0  0  0  0  0  0  0  0  0  0
   26.3683   63.2454   17.8916 H   0  0  0  0  0  0  0  0  0  0  0  0
   23.0529   65.2321   16.7058 S   0  0  0  0  0  0  0  0  0  0  0  0
   22.4390   63.5609   17.0422 C   0  0  0  0  0  0  0  0  0  0  0  0
   22.1329   66.1945   17.3990 O   0  0  0  0  0  0  0  0  0  0  0  0
   29.2660   66.0687   17.2881 C   0  0  0  0  0  0  0  0  0  0  0  0
   28.1870   65.1659   17.5145 O   0  0  0  0  0  0  0  0  0  0  0  0
 16 17  1  0
  1 17  1  0
  1  2  1  0
  2  3  1  0
  2  4  1  0
  4  5  1  0
  4  6  1  0
  6 13  1  0
 13 14  1  0
 13 15  2  0
  6  7  1  0
  7  8  1  0
  7  1  1  0
  3  9  1  0
  5 10  1  0
  5 11  1  0
  8 12  1  0
M  END
> <minimizedAffinity>
-4.27594

> <CNNscore>
0.2886387706

> <CNNaffinity>
3.0858290195

> <CNN_VS>
0.8906899095

> <CNNaffinity_variance>
0.2324750274

$$$$



 17 17  0  0  0  0  0  0  0  0999 V2000
   28.0520   65.3858    9.8574 C   0  0  0  0  0  0  0  0  0  0  0  0
   29.1460   64.6001   10.5893 C   0  0  0  0  0  0  0  0  0  0  0  0
   29.4487   63.4001    9.8617 O   0  0  0  0  0  0  0  0  0  0  0  0
   28.4605   64.2699   11.9232 C   0  0  0  0  0  0  0  0  0  0  0  0
   29.2262   63.3136   12.7279 N   0  0  0  0  0  0  0  0  0  0  0  0
   27.0866   63.7597   11.4483 C   0  0  0  0  0  0  0  0  0  0  0  0
   26.7401   64.6560   10.2428 C   0  0  0  0  0  0  0  0  0  0  0  0
   26.2287   63.8528    9.1755 O   0  0  0  0  0  0  0  0  0  0  0  0
   28.6360   62.8862    9.7332 H   0  0  0  0  0  0  0  0  0  0  0  0
   29.3782   62.4609   12.1893 H   0  0  0  0  0  0  0  0  0  0  0  0
   28.7067   63.0913   13.5771 H   0  0  0  0  0  0  0  0  0  0  0  0
   26.8863   63.1828    8.9313 H   0  0  0  0  0  0  0  0  0  0  0  0
   25.8370   63.8956   12.7700 S   0  0  0  0  0  0  0  0  0  0  0  0
   24.3917   63.6386   11.7079 C   0  0  0  0  0  0  0  0  0  0  0  0
   25.9708   62.6828   13.6444 O   0  0  0  0  0  0  0  0  0  0  0  0
   29.2961   66.3548    8.0858 C   0  0  0  0  0  0  0  0  0  0  0  0
   28.3131   65.3899    8.4512 O   0  0  0  0  0  0  0  0  0  0  0  0
 16 17  1  0
  1 17  1  0
  1  2  1  0
  2  3  1  0
  2  4  1  0
  4  5  1  0
  4  6  1  0
  6 13  1  0
 13 14  1  0
 13 15  2  0
  6  7  1  0
  7  8  1  0
  7  1  1  0
  3  9  1  0
  5 10  1  0
  5 11  1  0
  8 12  1  0
M  END
> <minimizedAffinity>
-5.95272

> <CNNscore>
0.2395576835

> <CNNaffinity>
3.5566310883

> <CNN_VS>
0.8520182967

> <CNNaffinity_variance>
0.7268102765

$$$$



 17 17  0  0  0  0  0  0  0  0999 V2000
   26.3016   65.3420   17.2132 C   0  0  0  0  0  0  0  0  0  0  0  0
   24.7814   65.4142   17.3965 C   0  0  0  0  0  0  0  0  0  0  0  0
   24.2724   64.1145   17.7321 O   0  0  0  0  0  0  0  0  0  0  0  0
   24.3133   65.8376   15.9966 C   0  0  0  0  0  0  0  0  0  0  0  0
   22.8581   65.7568   15.8413 N   0  0  0  0  0  0  0  0  0  0  0  0
   25.1128   64.8754   15.0976 C   0  0  0  0  0  0  0  0  0  0  0  0
   26.4836   64.7511   15.7920 C   0  0  0  0  0  0  0  0  0  0  0  0
   26.8883   63.3795   15.8189 O   0  0  0  0  0  0  0  0  0  0  0  0
   24.5412   63.4766   17.0526 H   0  0  0  0  0  0  0  0  0  0  0  0
   22.5466   64.8071   16.0448 H   0  0  0  0  0  0  0  0  0  0  0  0
   22.6043   66.0000   14.8838 H   0  0  0  0  0  0  0  0  0  0  0  0
   26.2171   62.8533   16.2809 H   0  0  0  0  0  0  0  0  0  0  0  0
   25.2730   65.5314   13.4032 S   0  0  0  0  0  0  0  0  0  0  0  0
   24.8642   63.9864   12.5494 C   0  0  0  0  0  0  0  0  0  0  0  0
   24.1336   66.4821   13.1775 O   0  0  0  0  0  0  0  0  0  0  0  0
   27.5562   65.3202   19.2259 C   0  0  0  0  0  0  0  0  0  0  0  0
   26.8791   64.5382   18.2458 O   0  0  0  0  0  0  0  0  0  0  0  0
 16 17  1  0
  1 17  1  0
  1  2  1  0
  2  3  1  0
  2  4  1  0
  4  5  1  0
  4  6  1  0
  6 13  1  0
 13 14  1  0
 13 15  2  0
  6  7  1  0
  7  8  1  0
  7  1  1  0
  3  9  1  0
  5 10  1  0
  5 11  1  0
  8 12  1  0
M  END
> <minimizedAffinity>
-4.04911

> <CNNscore>
0.2376253307

> <CNNaffinity>
2.7790253162

> <CNN_VS>
0.6603668332

> <CNNaffinity_variance>
0.4436039031

$$$$



 17 17  0  0  0  0  0  0  0  0999 V2000
   35.0398   71.2694   18.4556 C   0  0  0  0  0  0  0  0  0  0  0  0
   34.7371   69.7808   18.6611 C   0  0  0  0  0  0  0  0  0  0  0  0
   35.9658   69.0402   18.7144 O   0  0  0  0  0  0  0  0  0  0  0  0
   33.9500   69.4388   17.3876 C   0  0  0  0  0  0  0  0  0  0  0  0
   33.7343   67.9977   17.2291 N   0  0  0  0  0  0  0  0  0  0  0  0
   34.8272   70.0839   16.2977 C   0  0  0  0  0  0  0  0  0  0  0  0
   35.3390   71.3888   16.9396 C   0  0  0  0  0  0  0  0  0  0  0  0
   36.7349   71.5442   16.6694 O   0  0  0  0  0  0  0  0  0  0  0  0
   36.4829   69.2135   17.9122 H   0  0  0  0  0  0  0  0  0  0  0  0
   34.6341   67.5175   17.2269 H   0  0  0  0  0  0  0  0  0  0  0  0
   33.2523   67.8210   16.3477 H   0  0  0  0  0  0  0  0  0  0  0  0
   37.2182   70.7765   17.0129 H   0  0  0  0  0  0  0  0  0  0  0  0
   33.8666   70.4103   14.7819 S   0  0  0  0  0  0  0  0  0  0  0  0
   34.3416   72.1507   14.6133 C   0  0  0  0  0  0  0  0  0  0  0  0
   34.5220   69.6572   13.6610 O   0  0  0  0  0  0  0  0  0  0  0  0
   35.9088   72.9208   19.9195 C   0  0  0  0  0  0  0  0  0  0  0  0
   36.1341   71.6633   19.2880 O   0  0  0  0  0  0  0  0  0  0  0  0
 16 17  1  0
  1 17  1  0
  1  2  1  0
  2  3  1  0
  2  4  1  0
  4  5  1  0
  4  6  1  0
  6 13  1  0
 13 14  1  0
 13 15  2  0
  6  7  1  0
  7  8  1  0
  7  1  1  0
  3  9  1  0
  5 10  1  0
  5 11  1  0
  8 12  1  0
M  END
> <minimizedAffinity>
-4.57715

> <CNNscore>
0.2331812382

> <CNNaffinity>
2.8010413647

> <CNN_VS>
0.6531503201

> <CNNaffinity_variance>
0.6621277332

$$$$



 17 17  0  0  0  0  0  0  0  0999 V2000
   28.0686   64.3818   11.3301 C   0  0  0  0  0  0  0  0  0  0  0  0
   28.7273   64.4664   12.7116 C   0  0  0  0  0  0  0  0  0  0  0  0
   29.3631   63.2172   13.0216 O   0  0  0  0  0  0  0  0  0  0  0  0
   27.5164   64.7028   13.6260 C   0  0  0  0  0  0  0  0  0  0  0  0
   27.8547   64.5925   15.0479 N   0  0  0  0  0  0  0  0  0  0  0  0
   26.5276   63.6385   13.1133 C   0  0  0  0  0  0  0  0  0  0  0  0
   26.7469   63.6143   11.5876 C   0  0  0  0  0  0  0  0  0  0  0  0
   26.8040   62.2605   11.1297 O   0  0  0  0  0  0  0  0  0  0  0  0
   28.7144   62.4990   12.9556 H   0  0  0  0  0  0  0  0  0  0  0  0
   28.2605   63.6747   15.2306 H   0  0  0  0  0  0  0  0  0  0  0  0
   27.0104   64.7087   15.6083 H   0  0  0  0  0  0  0  0  0  0  0  0
   27.5189   61.7934   11.5898 H   0  0  0  0  0  0  0  0  0  0  0  0
   24.8080   64.0723   13.5400 S   0  0  0  0  0  0  0  0  0  0  0  0
   24.0417   62.6040   12.8051 C   0  0  0  0  0  0  0  0  0  0  0  0
   24.6682   63.9516   15.0296 O   0  0  0  0  0  0  0  0  0  0  0  0
   29.8355   64.6277    9.7671 C   0  0  0  0  0  0  0  0  0  0  0  0
   28.9447   63.7217   10.4123 O   0  0  0  0  0  0  0  0  0  0  0  0
 16 17  1  0
  1 17  1  0
  1  2  1  0
  2  3  1  0
  2  4  1  0
  4  5  1  0
  4  6  1  0
  6 13  1  0
 13 14  1  0
 13 15  2  0
  6  7  1  0
  7  8  1  0
  7  1  1  0
  3  9  1  0
  5 10  1  0
  5 11  1  0
  8 12  1  0
M  END
> <minimizedAffinity>
-5.09625

> <CNNscore>
0.2075394094

> <CNNaffinity>
2.9657421112

> <CNN_VS>
0.6155083776

> <CNNaffinity_variance>
0.5911042094

$$$$



 17 17  0  0  0  0  0  0  0  0999 V2000
   24.7814   64.6191   15.4252 C   0  0  0  0  0  0  0  0  0  0  0  0
   25.3166   64.4159   14.0032 C   0  0  0  0  0  0  0  0  0  0  0  0
   25.5423   63.0180   13.7665 O   0  0  0  0  0  0  0  0  0  0  0  0
   26.6468   65.1815   14.0529 C   0  0  0  0  0  0  0  0  0  0  0  0
   27.4752   64.9484   12.8664 N   0  0  0  0  0  0  0  0  0  0  0  0
   27.2516   64.6679   15.3734 C   0  0  0  0  0  0  0  0  0  0  0  0
   26.0432   64.5293   16.3207 C   0  0  0  0  0  0  0  0  0  0  0  0
   26.1238   63.2884   17.0273 O   0  0  0  0  0  0  0  0  0  0  0  0
   26.1366   62.6665   14.4479 H   0  0  0  0  0  0  0  0  0  0  0  0
   27.6477   63.9484   12.7634 H   0  0  0  0  0  0  0  0  0  0  0  0
   28.3640   65.4378   12.9707 H   0  0  0  0  0  0  0  0  0  0  0  0
   26.1517   62.5558   16.3921 H   0  0  0  0  0  0  0  0  0  0  0  0
   28.4925   65.8322   16.0304 S   0  0  0  0  0  0  0  0  0  0  0  0
   27.3930   67.2696   16.1193 C   0  0  0  0  0  0  0  0  0  0  0  0
   28.8002   65.4166   17.4395 O   0  0  0  0  0  0  0  0  0  0  0  0
   22.7304   64.1388   16.5151 C   0  0  0  0  0  0  0  0  0  0  0  0
   23.7968   63.6250   15.7218 O   0  0  0  0  0  0  0  0  0  0  0  0
 16 17  1  0
  1 17  1  0
  1  2  1  0
  2  3  1  0
  2  4  1  0
  4  5  1  0
  4  6  1  0
  6 13  1  0
 13 14  1  0
 13 15  2  0
  6  7  1  0
  7  8  1  0
  7  1  1  0
  3  9  1  0
  5 10  1  0
  5 11  1  0
  8 12  1  0
M  END
> <minimizedAffinity>
-4.08890

> <CNNscore>
0.2009299099

> <CNNaffinity>
2.9240138531

> <CNN_VS>
0.5875218511

> <CNNaffinity_variance>
0.6022057533

$$$$
