


 27 29  0  0  0  0  0  0  0  0999 V2000
   -2.1655    6.8768   14.1312 C   0  0  0  0  0  0  0  0  0  0  0  0
   -0.7821    7.4534   13.7241 C   0  0  0  0  0  0  0  0  0  0  0  0
   -0.2725    6.7572   12.4476 C   0  0  0  0  0  0  0  0  0  0  0  0
   -0.4353    5.2649   12.5659 C   0  0  0  0  0  0  0  0  0  0  0  0
    0.2312    4.3182   11.8931 N   0  0  0  0  0  0  0  0  0  0  0  0
   -0.1820    3.0507   12.2565 C   0  0  0  0  0  0  0  0  0  0  0  0
   -1.1195    3.2579   13.2408 C   0  0  0  0  0  0  0  0  0  0  0  0
   -1.2489    4.6279   13.4214 N   0  0  0  0  0  0  0  0  0  0  0  0
   -2.0932    5.3459   14.4132 C   0  0  0  0  0  0  0  0  0  0  0  0
    0.9286    4.5023   11.2230 H   0  0  0  0  0  0  0  0  0  0  0  0
   -3.5268    4.7660   14.4914 C   0  0  0  0  0  0  0  0  0  0  0  0
   -3.9690    4.7163   15.8506 O   0  0  0  0  0  0  0  0  0  0  0  0
   -3.3744    4.1468   16.3634 H   0  0  0  0  0  0  0  0  0  0  0  0
   -1.7054    7.3167   16.4328 C   0  0  0  0  0  0  0  0  0  0  0  0
   -2.6117    7.5088   15.3486 O   0  0  0  0  0  0  0  0  0  0  0  0
   -0.9283    8.8574   13.4306 O   0  0  0  0  0  0  0  0  0  0  0  0
   -1.5169    9.0926   12.1513 C   0  0  0  0  0  0  0  0  0  0  0  0
    1.1184    7.0221   12.1939 O   0  0  0  0  0  0  0  0  0  0  0  0
    1.3994    7.2560   10.8146 C   0  0  0  0  0  0  0  0  0  0  0  0
    0.3631    1.8095   11.6638 C   0  0  0  0  0  0  0  0  0  0  0  0
    1.8904    1.7534   11.7754 C   0  0  0  0  0  0  0  0  0  0  0  0
    2.3706    0.3581   12.0803 C   0  0  0  0  0  0  0  0  0  0  0  0
    1.8818   -0.3315   13.2000 C   0  0  0  0  0  0  0  0  0  0  0  0
    2.3342   -1.6206   13.4888 C   0  0  0  0  0  0  0  0  0  0  0  0
    3.2778   -2.2306   12.6661 C   0  0  0  0  0  0  0  0  0  0  0  0
    3.7706   -1.5550   11.5489 C   0  0  0  0  0  0  0  0  0  0  0  0
    3.3177   -0.2675   11.2542 C   0  0  0  0  0  0  0  0  0  0  0  0
 14 15  1  0
  1 15  1  0
  1  2  1  0
  2 16  1  0
 16 17  1  0
  2  3  1  0
  3 18  1  0
 18 19  1  0
  3  4  1  0
  4  5  1  0
  5  6  1  0
  6 20  1  0
 20 21  1  0
 21 22  1  0
 22 23  2  0
 23 24  1  0
 24 25  2  0
 25 26  1  0
 26 27  2  0
  6  7  2  0
  7  8  1  0
  8  9  1  0
  9 11  1  0
 11 12  1  0
  9  1  1  0
  8  4  2  0
 27 22  1  0
  5 10  1  0
 12 13  1  0
M  CHG 1   8   1
M  END
> <minimizedAffinity>
-6.35204

> <CNNscore>
0.4442225993

> <CNNaffinity>
5.1527523994

> <CNN_VS>
2.2889690399

> <CNNaffinity_variance>
0.5184578300

$$$$



 27 29  0  0  0  0  0  0  0  0999 V2000
   -2.2294    7.2608   13.9918 C   0  0  0  0  0  0  0  0  0  0  0  0
   -0.7347    7.5014   13.6459 C   0  0  0  0  0  0  0  0  0  0  0  0
   -0.3158    6.6137   12.4584 C   0  0  0  0  0  0  0  0  0  0  0  0
   -0.7993    5.2026   12.6649 C   0  0  0  0  0  0  0  0  0  0  0  0
   -0.3140    4.0866   12.1061 N   0  0  0  0  0  0  0  0  0  0  0  0
   -1.0073    2.9666   12.5239 C   0  0  0  0  0  0  0  0  0  0  0  0
   -1.9318    3.4435   13.4231 C   0  0  0  0  0  0  0  0  0  0  0  0
   -1.7759    4.8204   13.5015 N   0  0  0  0  0  0  0  0  0  0  0  0
   -2.5008    5.7763   14.3805 C   0  0  0  0  0  0  0  0  0  0  0  0
    0.4424    4.0665   11.4763 H   0  0  0  0  0  0  0  0  0  0  0  0
   -4.0272    5.5163   14.3959 C   0  0  0  0  0  0  0  0  0  0  0  0
   -4.6420    6.2308   15.4714 O   0  0  0  0  0  0  0  0  0  0  0  0
   -4.2668    5.9319   16.3144 H   0  0  0  0  0  0  0  0  0  0  0  0
   -1.8091    7.7838   16.2836 C   0  0  0  0  0  0  0  0  0  0  0  0
   -2.5969    8.0680   15.1293 O   0  0  0  0  0  0  0  0  0  0  0  0
   -0.5618    8.8767   13.2490 O   0  0  0  0  0  0  0  0  0  0  0  0
   -1.2783    9.1985   12.0567 C   0  0  0  0  0  0  0  0  0  0  0  0
    1.1113    6.5613   12.2865 O   0  0  0  0  0  0  0  0  0  0  0  0
    1.5327    6.9756   10.9877 C   0  0  0  0  0  0  0  0  0  0  0  0
   -0.7077    1.5954   12.0560 C   0  0  0  0  0  0  0  0  0  0  0  0
    0.6288    1.0891   12.6090 C   0  0  0  0  0  0  0  0  0  0  0  0
    0.6076    1.0054   14.1133 C   0  0  0  0  0  0  0  0  0  0  0  0
   -0.2651    0.1191   14.7621 C   0  0  0  0  0  0  0  0  0  0  0  0
   -0.2925    0.0485   16.1565 C   0  0  0  0  0  0  0  0  0  0  0  0
    0.5471    0.8614   16.9139 C   0  0  0  0  0  0  0  0  0  0  0  0
    1.4202    1.7462   16.2796 C   0  0  0  0  0  0  0  0  0  0  0  0
    1.4536    1.8169   14.8855 C   0  0  0  0  0  0  0  0  0  0  0  0
 14 15  1  0
  1 15  1  0
  1  2  1  0
  2 16  1  0
 16 17  1  0
  2  3  1  0
  3 18  1  0
 18 19  1  0
  3  4  1  0
  4  5  1  0
  5  6  1  0
  6 20  1  0
 20 21  1  0
 21 22  1  0
 22 23  2  0
 23 24  1  0
 24 25  2  0
 25 26  1  0
 26 27  2  0
  6  7  2  0
  7  8  1  0
  8  9  1  0
  9 11  1  0
 11 12  1  0
  9  1  1  0
  8  4  2  0
 27 22  1  0
  5 10  1  0
 12 13  1  0
M  CHG 1   8   1
M  END
> <minimizedAffinity>
-5.94536

> <CNNscore>
0.3862286806

> <CNNaffinity>
5.3612198830

> <CNN_VS>
2.0706567764

> <CNNaffinity_variance>
0.1435180604

$$$$



 27 29  0  0  0  0  0  0  0  0999 V2000
   -0.7812    8.5117    9.7017 C   0  0  0  0  0  0  0  0  0  0  0  0
   -1.3301    9.2575   10.9484 C   0  0  0  0  0  0  0  0  0  0  0  0
   -0.5276    8.8575   12.2013 C   0  0  0  0  0  0  0  0  0  0  0  0
   -0.3612    7.3619   12.2597 C   0  0  0  0  0  0  0  0  0  0  0  0
   -0.1072    6.6135   13.3407 N   0  0  0  0  0  0  0  0  0  0  0  0
   -0.0157    5.2726   13.0198 C   0  0  0  0  0  0  0  0  0  0  0  0
   -0.2786    5.2175   11.6713 C   0  0  0  0  0  0  0  0  0  0  0  0
   -0.4996    6.5144   11.2292 N   0  0  0  0  0  0  0  0  0  0  0  0
   -0.8799    6.9650    9.8637 C   0  0  0  0  0  0  0  0  0  0  0  0
    0.0008    6.9737   14.2506 H   0  0  0  0  0  0  0  0  0  0  0  0
   -0.0374    6.2747    8.7630 C   0  0  0  0  0  0  0  0  0  0  0  0
   -0.7778    5.2057    8.1679 O   0  0  0  0  0  0  0  0  0  0  0  0
   -1.0007    4.5496    8.8467 H   0  0  0  0  0  0  0  0  0  0  0  0
   -2.9658    8.8967    8.8173 C   0  0  0  0  0  0  0  0  0  0  0  0
   -1.5664    8.8649    8.5445 O   0  0  0  0  0  0  0  0  0  0  0  0
   -1.1648   10.6767   10.7552 O   0  0  0  0  0  0  0  0  0  0  0  0
    0.1218   11.0140   10.2360 C   0  0  0  0  0  0  0  0  0  0  0  0
   -1.1692    9.2695   13.4210 O   0  0  0  0  0  0  0  0  0  0  0  0
   -1.7329    8.1805   14.1506 C   0  0  0  0  0  0  0  0  0  0  0  0
    0.2779    4.2115   14.0082 C   0  0  0  0  0  0  0  0  0  0  0  0
    1.7652    3.8421   14.0157 C   0  0  0  0  0  0  0  0  0  0  0  0
    1.9793    2.4061   13.6127 C   0  0  0  0  0  0  0  0  0  0  0  0
    2.3145    2.0831   12.2893 C   0  0  0  0  0  0  0  0  0  0  0  0
    2.5029    0.7517   11.9130 C   0  0  0  0  0  0  0  0  0  0  0  0
    2.3565   -0.2670   12.8512 C   0  0  0  0  0  0  0  0  0  0  0  0
    2.0243    0.0420   14.1709 C   0  0  0  0  0  0  0  0  0  0  0  0
    1.8391    1.3725   14.5522 C   0  0  0  0  0  0  0  0  0  0  0  0
 14 15  1  0
  1 15  1  0
  1  2  1  0
  2 16  1  0
 16 17  1  0
  2  3  1  0
  3 18  1  0
 18 19  1  0
  3  4  1  0
  4  5  1  0
  5  6  1  0
  6 20  1  0
 20 21  1  0
 21 22  1  0
 22 23  2  0
 23 24  1  0
 24 25  2  0
 25 26  1  0
 26 27  2  0
  6  7  2  0
  7  8  1  0
  8  9  1  0
  9 11  1  0
 11 12  1  0
  9  1  1  0
  8  4  2  0
 27 22  1  0
  5 10  1  0
 12 13  1  0
M  CHG 1   8   1
M  END
> <minimizedAffinity>
-7.04357

> <CNNscore>
0.3487062752

> <CNNaffinity>
5.8227481842

> <CNN_VS>
2.0304288864

> <CNNaffinity_variance>
1.2558842897

$$$$



 27 29  0  0  0  0  0  0  0  0999 V2000
   -1.2893    8.9507   10.8333 C   0  0  0  0  0  0  0  0  0  0  0  0
   -0.6308    8.4492    9.5194 C   0  0  0  0  0  0  0  0  0  0  0  0
   -0.4706    6.9173    9.5579 C   0  0  0  0  0  0  0  0  0  0  0  0
    0.1125    6.4860   10.8777 C   0  0  0  0  0  0  0  0  0  0  0  0
    0.7666    5.3486   11.1450 N   0  0  0  0  0  0  0  0  0  0  0  0
    1.1585    5.2872   12.4687 C   0  0  0  0  0  0  0  0  0  0  0  0
    0.7523    6.4846   13.0089 C   0  0  0  0  0  0  0  0  0  0  0  0
    0.1218    7.2095   12.0073 N   0  0  0  0  0  0  0  0  0  0  0  0
   -0.4338    8.5870   12.0839 C   0  0  0  0  0  0  0  0  0  0  0  0
    0.9459    4.6439   10.4812 H   0  0  0  0  0  0  0  0  0  0  0  0
   -1.2718    8.8102   13.3668 C   0  0  0  0  0  0  0  0  0  0  0  0
   -2.3644    7.8886   13.4130 O   0  0  0  0  0  0  0  0  0  0  0  0
   -2.9352    8.0248   12.6407 H   0  0  0  0  0  0  0  0  0  0  0  0
   -0.2114   11.0184   10.3179 C   0  0  0  0  0  0  0  0  0  0  0  0
   -1.3966   10.3888   10.8001 O   0  0  0  0  0  0  0  0  0  0  0  0
   -1.4932    8.7731    8.4103 O   0  0  0  0  0  0  0  0  0  0  0  0
   -2.8777    8.7020    8.7522 C   0  0  0  0  0  0  0  0  0  0  0  0
    0.3977    6.4282    8.5207 O   0  0  0  0  0  0  0  0  0  0  0  0
    0.0100    5.1471    8.0261 C   0  0  0  0  0  0  0  0  0  0  0  0
    1.8818    4.1384   13.0568 C   0  0  0  0  0  0  0  0  0  0  0  0
    0.9975    2.8886   13.1245 C   0  0  0  0  0  0  0  0  0  0  0  0
    1.7346    1.6645   12.6462 C   0  0  0  0  0  0  0  0  0  0  0  0
    2.5171    1.7170   11.4831 C   0  0  0  0  0  0  0  0  0  0  0  0
    3.1921    0.5801   11.0338 C   0  0  0  0  0  0  0  0  0  0  0  0
    3.0904   -0.6169   11.7381 C   0  0  0  0  0  0  0  0  0  0  0  0
    2.3158   -0.6811   12.8971 C   0  0  0  0  0  0  0  0  0  0  0  0
    1.6426    0.4545   13.3521 C   0  0  0  0  0  0  0  0  0  0  0  0
 14 15  1  0
  1 15  1  0
  1  2  1  0
  2 16  1  0
 16 17  1  0
  2  3  1  0
  3 18  1  0
 18 19  1  0
  3  4  1  0
  4  5  1  0
  5  6  1  0
  6 20  1  0
 20 21  1  0
 21 22  1  0
 22 23  2  0
 23 24  1  0
 24 25  2  0
 25 26  1  0
 26 27  2  0
  6  7  2  0
  7  8  1  0
  8  9  1  0
  9 11  1  0
 11 12  1  0
  9  1  1  0
  8  4  2  0
 27 22  1  0
  5 10  1  0
 12 13  1  0
M  CHG 1   8   1
M  END
> <minimizedAffinity>
-6.77295

> <CNNscore>
0.2995964587

> <CNNaffinity>
5.3914294243

> <CNN_VS>
1.6152532101

> <CNNaffinity_variance>
0.3987379074

$$$$



 27 29  0  0  0  0  0  0  0  0999 V2000
   -1.3174    8.9512   10.9148 C   0  0  0  0  0  0  0  0  0  0  0  0
   -0.7711    8.3322    9.5995 C   0  0  0  0  0  0  0  0  0  0  0  0
   -0.8164    6.7942    9.6786 C   0  0  0  0  0  0  0  0  0  0  0  0
   -0.2576    6.3222   10.9949 C   0  0  0  0  0  0  0  0  0  0  0  0
    0.2460    5.1141   11.2783 N   0  0  0  0  0  0  0  0  0  0  0  0
    0.6651    5.0343   12.5926 C   0  0  0  0  0  0  0  0  0  0  0  0
    0.4391    6.2889   13.1080 C   0  0  0  0  0  0  0  0  0  0  0  0
   -0.1180    7.0663   12.1022 N   0  0  0  0  0  0  0  0  0  0  0  0
   -0.4817    8.5076   12.1530 C   0  0  0  0  0  0  0  0  0  0  0  0
    0.3096    4.3751   10.6310 H   0  0  0  0  0  0  0  0  0  0  0  0
   -1.2439    8.8743   13.4500 C   0  0  0  0  0  0  0  0  0  0  0  0
   -2.3497    7.9883   13.6437 O   0  0  0  0  0  0  0  0  0  0  0  0
   -2.9592    8.0629   12.8928 H   0  0  0  0  0  0  0  0  0  0  0  0
   -0.0250   10.8392   10.2305 C   0  0  0  0  0  0  0  0  0  0  0  0
   -1.2321   10.3893   10.8424 O   0  0  0  0  0  0  0  0  0  0  0  0
   -1.6149    8.7410    8.5041 O   0  0  0  0  0  0  0  0  0  0  0  0
   -3.0016    8.7261    8.8439 C   0  0  0  0  0  0  0  0  0  0  0  0
   -0.0525    6.1664    8.6340 O   0  0  0  0  0  0  0  0  0  0  0  0
   -0.5967    4.9138    8.2203 C   0  0  0  0  0  0  0  0  0  0  0  0
    1.2452    3.8139   13.1952 C   0  0  0  0  0  0  0  0  0  0  0  0
    0.8796    3.6872   14.6780 C   0  0  0  0  0  0  0  0  0  0  0  0
    1.1307    2.2930   15.1912 C   0  0  0  0  0  0  0  0  0  0  0  0
    1.0420    2.0155   16.5635 C   0  0  0  0  0  0  0  0  0  0  0  0
    1.2847    0.7258   17.0407 C   0  0  0  0  0  0  0  0  0  0  0  0
    1.6194   -0.2954   16.1551 C   0  0  0  0  0  0  0  0  0  0  0  0
    1.7097   -0.0317   14.7877 C   0  0  0  0  0  0  0  0  0  0  0  0
    1.4638    1.2556   14.3060 C   0  0  0  0  0  0  0  0  0  0  0  0
 14 15  1  0
  1 15  1  0
  1  2  1  0
  2 16  1  0
 16 17  1  0
  2  3  1  0
  3 18  1  0
 18 19  1  0
  3  4  1  0
  4  5  1  0
  5  6  1  0
  6 20  1  0
 20 21  1  0
 21 22  1  0
 22 23  2  0
 23 24  1  0
 24 25  2  0
 25 26  1  0
 26 27  2  0
  6  7  2  0
  7  8  1  0
  8  9  1  0
  9 11  1  0
 11 12  1  0
  9  1  1  0
  8  4  2  0
 27 22  1  0
  5 10  1  0
 12 13  1  0
M  CHG 1   8   1
M  END
> <minimizedAffinity>
-6.83130

> <CNNscore>
0.2994744778

> <CNNaffinity>
5.4780850410

> <CNN_VS>
1.6405466795

> <CNNaffinity_variance>
0.2525978088

$$$$



 27 29  0  0  0  0  0  0  0  0999 V2000
    1.5941    0.7340   14.0792 C   0  0  0  0  0  0  0  0  0  0  0  0
    1.4046    1.8872   13.0565 C   0  0  0  0  0  0  0  0  0  0  0  0
    1.6496    3.2466   13.7391 C   0  0  0  0  0  0  0  0  0  0  0  0
    0.9192    3.3098   15.0544 C   0  0  0  0  0  0  0  0  0  0  0  0
    0.5453    4.4069   15.7252 N   0  0  0  0  0  0  0  0  0  0  0  0
   -0.1042    4.0860   16.9019 C   0  0  0  0  0  0  0  0  0  0  0  0
   -0.1606    2.7121   16.9061 C   0  0  0  0  0  0  0  0  0  0  0  0
    0.4652    2.2586   15.7533 N   0  0  0  0  0  0  0  0  0  0  0  0
    0.6060    0.8564   15.2779 C   0  0  0  0  0  0  0  0  0  0  0  0
    0.7124    5.3273   15.4183 H   0  0  0  0  0  0  0  0  0  0  0  0
    1.0442   -0.1050   16.4099 C   0  0  0  0  0  0  0  0  0  0  0  0
    2.3592    0.2278   16.8629 O   0  0  0  0  0  0  0  0  0  0  0  0
    2.9851    0.1471   16.1263 H   0  0  0  0  0  0  0  0  0  0  0  0
    2.3895   -1.4636   13.5885 C   0  0  0  0  0  0  0  0  0  0  0  0
    1.3231   -0.5289   13.4371 O   0  0  0  0  0  0  0  0  0  0  0  0
    2.3779    1.7428   12.0026 O   0  0  0  0  0  0  0  0  0  0  0  0
    1.7997    1.2851   10.7801 C   0  0  0  0  0  0  0  0  0  0  0  0
    1.1977    4.3536   12.9395 O   0  0  0  0  0  0  0  0  0  0  0  0
    2.2599    5.2086   12.5188 C   0  0  0  0  0  0  0  0  0  0  0  0
   -0.6122    5.0936   17.8587 C   0  0  0  0  0  0  0  0  0  0  0  0
   -2.1301    5.2690   17.7420 C   0  0  0  0  0  0  0  0  0  0  0  0
   -2.5157    5.8712   16.4157 C   0  0  0  0  0  0  0  0  0  0  0  0
   -2.1384    7.1840   16.0962 C   0  0  0  0  0  0  0  0  0  0  0  0
   -2.5043    7.7461   14.8714 C   0  0  0  0  0  0  0  0  0  0  0  0
   -3.2501    7.0056   13.9578 C   0  0  0  0  0  0  0  0  0  0  0  0
   -3.6304    5.6983   14.2640 C   0  0  0  0  0  0  0  0  0  0  0  0
   -3.2630    5.1311   15.4859 C   0  0  0  0  0  0  0  0  0  0  0  0
 14 15  1  0
  1 15  1  0
  1  2  1  0
  2 16  1  0
 16 17  1  0
  2  3  1  0
  3 18  1  0
 18 19  1  0
  3  4  1  0
  4  5  1  0
  5  6  1  0
  6 20  1  0
 20 21  1  0
 21 22  1  0
 22 23  2  0
 23 24  1  0
 24 25  2  0
 25 26  1  0
 26 27  2  0
  6  7  2  0
  7  8  1  0
  8  9  1  0
  9 11  1  0
 11 12  1  0
  9  1  1  0
  8  4  2  0
 27 22  1  0
  5 10  1  0
 12 13  1  0
M  CHG 1   8   1
M  END
> <minimizedAffinity>
-6.30776

> <CNNscore>
0.2908756435

> <CNNaffinity>
5.2976212502

> <CNN_VS>
1.5409489870

> <CNNaffinity_variance>
0.1144878492

$$$$



 27 29  0  0  0  0  0  0  0  0999 V2000
   -1.5705    6.9684   14.9279 C   0  0  0  0  0  0  0  0  0  0  0  0
   -1.1329    5.7614   15.8016 C   0  0  0  0  0  0  0  0  0  0  0  0
    0.3348    5.3976   15.5061 C   0  0  0  0  0  0  0  0  0  0  0  0
    0.5714    5.3470   14.0198 C   0  0  0  0  0  0  0  0  0  0  0  0
    1.5448    4.6932   13.3730 N   0  0  0  0  0  0  0  0  0  0  0  0
    1.4557    4.8729   12.0058 C   0  0  0  0  0  0  0  0  0  0  0  0
    0.3308    5.6434   11.8275 C   0  0  0  0  0  0  0  0  0  0  0  0
   -0.2021    5.9120   13.0806 N   0  0  0  0  0  0  0  0  0  0  0  0
   -1.4487    6.6549   13.4064 C   0  0  0  0  0  0  0  0  0  0  0  0
    2.2375    4.1521   13.8163 H   0  0  0  0  0  0  0  0  0  0  0  0
   -1.5773    7.9678   12.5956 C   0  0  0  0  0  0  0  0  0  0  0  0
   -0.6043    8.9198   13.0341 O   0  0  0  0  0  0  0  0  0  0  0  0
   -0.7465    9.1184   13.9729 H   0  0  0  0  0  0  0  0  0  0  0  0
   -3.8353    6.2269   14.7748 C   0  0  0  0  0  0  0  0  0  0  0  0
   -2.9568    7.2724   15.1857 O   0  0  0  0  0  0  0  0  0  0  0  0
   -1.2223    6.1331   17.1918 O   0  0  0  0  0  0  0  0  0  0  0  0
   -2.0440    5.2422   17.9466 C   0  0  0  0  0  0  0  0  0  0  0  0
    0.7043    4.1171   16.0470 O   0  0  0  0  0  0  0  0  0  0  0  0
   -0.2301    3.0864   15.7296 C   0  0  0  0  0  0  0  0  0  0  0  0
    2.4090    4.2865   11.0382 C   0  0  0  0  0  0  0  0  0  0  0  0
    1.7037    3.3636   10.0386 C   0  0  0  0  0  0  0  0  0  0  0  0
    2.0740    1.9205   10.2637 C   0  0  0  0  0  0  0  0  0  0  0  0
    2.9328    1.5640   11.3141 C   0  0  0  0  0  0  0  0  0  0  0  0
    3.2844    0.2279   11.5168 C   0  0  0  0  0  0  0  0  0  0  0  0
    2.7851   -0.7617   10.6738 C   0  0  0  0  0  0  0  0  0  0  0  0
    1.9292   -0.4194    9.6261 C   0  0  0  0  0  0  0  0  0  0  0  0
    1.5718    0.9150    9.4225 C   0  0  0  0  0  0  0  0  0  0  0  0
 14 15  1  0
  1 15  1  0
  1  2  1  0
  2 16  1  0
 16 17  1  0
  2  3  1  0
  3 18  1  0
 18 19  1  0
  3  4  1  0
  4  5  1  0
  5  6  1  0
  6 20  1  0
 20 21  1  0
 21 22  1  0
 22 23  2  0
 23 24  1  0
 24 25  2  0
 25 26  1  0
 26 27  2  0
  6  7  2  0
  7  8  1  0
  8  9  1  0
  9 11  1  0
 11 12  1  0
  9  1  1  0
  8  4  2  0
 27 22  1  0
  5 10  1  0
 12 13  1  0
M  CHG 1   8   1
M  END
> <minimizedAffinity>
-6.88614

> <CNNscore>
0.2702321708

> <CNNaffinity>
5.0037083626

> <CNN_VS>
1.3521629572

> <CNNaffinity_variance>
0.1899709255

$$$$



 27 29  0  0  0  0  0  0  0  0999 V2000
    0.5246    7.6673    9.7279 C   0  0  0  0  0  0  0  0  0  0  0  0
   -0.8166    8.2768    9.2367 C   0  0  0  0  0  0  0  0  0  0  0  0
   -1.5355    8.9843   10.4013 C   0  0  0  0  0  0  0  0  0  0  0  0
   -1.5372    8.1063   11.6247 C   0  0  0  0  0  0  0  0  0  0  0  0
   -2.3770    8.1642   12.6662 N   0  0  0  0  0  0  0  0  0  0  0  0
   -2.0794    7.2024   13.6126 C   0  0  0  0  0  0  0  0  0  0  0  0
   -1.0260    6.4996   13.0768 C   0  0  0  0  0  0  0  0  0  0  0  0
   -0.7186    7.0673   11.8483 N   0  0  0  0  0  0  0  0  0  0  0  0
    0.3034    6.6231   10.8633 C   0  0  0  0  0  0  0  0  0  0  0  0
   -3.1145    8.8114   12.7474 H   0  0  0  0  0  0  0  0  0  0  0  0
    1.6594    6.2932   11.5342 C   0  0  0  0  0  0  0  0  0  0  0  0
    1.9569    4.9013   11.3948 O   0  0  0  0  0  0  0  0  0  0  0  0
    1.2620    4.3777   11.8234 H   0  0  0  0  0  0  0  0  0  0  0  0
    0.4948    5.7693    8.2790 C   0  0  0  0  0  0  0  0  0  0  0  0
    1.1671    6.9747    8.6379 O   0  0  0  0  0  0  0  0  0  0  0  0
   -0.5386    9.2664    8.2256 O   0  0  0  0  0  0  0  0  0  0  0  0
    0.1557   10.4012    8.7442 C   0  0  0  0  0  0  0  0  0  0  0  0
   -2.9046    9.2997   10.0931 O   0  0  0  0  0  0  0  0  0  0  0  0
   -3.2012    9.1973    8.7010 C   0  0  0  0  0  0  0  0  0  0  0  0
   -2.8253    7.0413   14.8801 C   0  0  0  0  0  0  0  0  0  0  0  0
   -3.3352    5.6071   15.0574 C   0  0  0  0  0  0  0  0  0  0  0  0
   -2.5605    4.8735   16.1214 C   0  0  0  0  0  0  0  0  0  0  0  0
   -1.9324    3.6539   15.8278 C   0  0  0  0  0  0  0  0  0  0  0  0
   -1.2230    2.9686   16.8162 C   0  0  0  0  0  0  0  0  0  0  0  0
   -1.1362    3.4918   18.1038 C   0  0  0  0  0  0  0  0  0  0  0  0
   -1.7560    4.7047   18.4076 C   0  0  0  0  0  0  0  0  0  0  0  0
   -2.4628    5.3952   17.4210 C   0  0  0  0  0  0  0  0  0  0  0  0
 14 15  1  0
  1 15  1  0
  1  2  1  0
  2 16  1  0
 16 17  1  0
  2  3  1  0
  3 18  1  0
 18 19  1  0
  3  4  1  0
  4  5  1  0
  5  6  1  0
  6 20  1  0
 20 21  1  0
 21 22  1  0
 22 23  2  0
 23 24  1  0
 24 25  2  0
 25 26  1  0
 26 27  2  0
  6  7  2  0
  7  8  1  0
  8  9  1  0
  9 11  1  0
 11 12  1  0
  9  1  1  0
  8  4  2  0
 27 22  1  0
  5 10  1  0
 12 13  1  0
M  CHG 1   8   1
M  END
> <minimizedAffinity>
-7.53664

> <CNNscore>
0.2363154143

> <CNNaffinity>
5.5013389587

> <CNN_VS>
1.3000512123

> <CNNaffinity_variance>
0.3583885133

$$$$



 27 29  0  0  0  0  0  0  0  0999 V2000
   -0.8493    8.3851    9.6736 C   0  0  0  0  0  0  0  0  0  0  0  0
   -1.4260    9.1766   10.8788 C   0  0  0  0  0  0  0  0  0  0  0  0
   -0.5215    8.9962   12.1130 C   0  0  0  0  0  0  0  0  0  0  0  0
   -0.1694    7.5434   12.2948 C   0  0  0  0  0  0  0  0  0  0  0  0
    0.2262    6.9373   13.4214 N   0  0  0  0  0  0  0  0  0  0  0  0
    0.4670    5.5921   13.2167 C   0  0  0  0  0  0  0  0  0  0  0  0
    0.1490    5.3775   11.8963 C   0  0  0  0  0  0  0  0  0  0  0  0
   -0.2511    6.5907   11.3539 N   0  0  0  0  0  0  0  0  0  0  0  0
   -0.7486    6.8603    9.9785 C   0  0  0  0  0  0  0  0  0  0  0  0
    0.3322    7.3932   14.2875 H   0  0  0  0  0  0  0  0  0  0  0  0
    0.1192    6.1724    8.8961 C   0  0  0  0  0  0  0  0  0  0  0  0
   -0.7061    5.4242    7.9993 O   0  0  0  0  0  0  0  0  0  0  0  0
   -1.1854    4.7415    8.4943 H   0  0  0  0  0  0  0  0  0  0  0  0
   -3.0756    8.7975    8.9143 C   0  0  0  0  0  0  0  0  0  0  0  0
   -1.7263    8.5305    8.5376 O   0  0  0  0  0  0  0  0  0  0  0  0
   -1.4464   10.5803   10.5503 O   0  0  0  0  0  0  0  0  0  0  0  0
   -0.1741   11.0612   10.1160 C   0  0  0  0  0  0  0  0  0  0  0  0
   -1.1503    9.4443   13.3267 O   0  0  0  0  0  0  0  0  0  0  0  0
   -1.9674    8.4445   13.9340 C   0  0  0  0  0  0  0  0  0  0  0  0
    0.9360    4.6728   14.2768 C   0  0  0  0  0  0  0  0  0  0  0  0
   -0.1875    3.7513   14.7635 C   0  0  0  0  0  0  0  0  0  0  0  0
   -1.4019    4.5371   15.1855 C   0  0  0  0  0  0  0  0  0  0  0  0
   -1.3994    5.2536   16.3916 C   0  0  0  0  0  0  0  0  0  0  0  0
   -2.5282    5.9736   16.7881 C   0  0  0  0  0  0  0  0  0  0  0  0
   -3.6676    5.9832   15.9876 C   0  0  0  0  0  0  0  0  0  0  0  0
   -3.6818    5.2751   14.7852 C   0  0  0  0  0  0  0  0  0  0  0  0
   -2.5536    4.5572   14.3831 C   0  0  0  0  0  0  0  0  0  0  0  0
 14 15  1  0
  1 15  1  0
  1  2  1  0
  2 16  1  0
 16 17  1  0
  2  3  1  0
  3 18  1  0
 18 19  1  0
  3  4  1  0
  4  5  1  0
  5  6  1  0
  6 20  1  0
 20 21  1  0
 21 22  1  0
 22 23  2  0
 23 24  1  0
 24 25  2  0
 25 26  1  0
 26 27  2  0
  6  7  2  0
  7  8  1  0
  8  9  1  0
  9 11  1  0
 11 12  1  0
  9  1  1  0
  8  4  2  0
 27 22  1  0
  5 10  1  0
 12 13  1  0
M  CHG 1   8   1
M  END
> <minimizedAffinity>
-7.21003

> <CNNscore>
0.2351094782

> <CNNaffinity>
6.0889801979

> <CNN_VS>
1.4315769672

> <CNNaffinity_variance>
0.1978976876

$$$$
