


 27 28  0  0  0  0  0  0  0  0999 V2000
    0.9216   43.0271    1.2386 C   0  0  0  0  0  0  0  0  0  0  0  0
    0.7765   44.3256    2.0633 C   0  0  0  0  0  0  0  0  0  0  0  0
    1.4671   45.5066    1.3615 C   0  0  0  0  0  0  0  0  0  0  0  0
    2.0021   46.3060    2.5297 C   0  0  0  0  0  0  0  0  0  0  0  0
    0.9125   47.0634    3.0600 O   0  0  0  0  0  0  0  0  0  0  0  0
    1.2049   47.6235    4.3392 C   0  0  0  0  0  0  0  0  0  0  0  0
    1.4308   46.5127    5.3564 C   0  0  0  0  0  0  0  0  0  0  0  0
    2.5742   45.6028    4.9196 C   0  0  0  0  0  0  0  0  0  0  0  0
    2.4516   45.1839    3.4606 C   0  0  0  0  0  0  0  0  0  0  0  0
    1.4754   44.1210    3.3136 O   0  0  0  0  0  0  0  0  0  0  0  0
   -0.7158   44.6521    2.2599 C   0  0  0  0  0  0  0  0  0  0  0  0
   -1.1727   45.3619    3.1453 O   0  0  0  0  0  0  0  0  0  0  0  0
   -1.5280   44.1841    1.2915 O   0  0  0  0  0  0  0  0  0  0  0  0
   -1.1816   43.6401    0.6117 H   0  0  0  0  0  0  0  0  0  0  0  0
    1.3773   41.7395    1.9794 C   0  0  0  0  0  0  0  0  0  0  0  0
    0.3360   40.6903    1.9465 N   0  0  0  0  0  0  0  0  0  0  0  0
   -0.4870   41.0120    2.4560 H   0  0  0  0  0  0  0  0  0  0  0  0
    0.6953   39.8410    2.3824 H   0  0  0  0  0  0  0  0  0  0  0  0
    1.9051   42.0144    3.4234 C   0  0  0  0  0  0  0  0  0  0  0  0
    2.2846   40.7180    4.2764 N   0  0  0  0  0  0  0  0  0  0  0  0
    1.2962   40.6277    5.4335 C   0  0  0  0  0  0  0  0  0  0  0  0
    2.0341   39.5685    3.3116 C   0  0  0  0  0  0  0  0  0  0  0  0
    3.7212   40.8710    4.7443 C   0  0  0  0  0  0  0  0  0  0  0  0
    4.9689   41.5027    6.8966 C   0  0  0  0  0  0  0  0  0  0  0  0
    4.1114   41.9636    5.7336 N   0  0  0  0  0  0  0  0  0  0  0  0
    2.7641   42.4446    6.3522 C   0  0  0  0  0  0  0  0  0  0  0  0
    4.7200   43.2021    5.0799 C   0  0  0  0  0  0  0  0  0  0  0  0
 24 25  1  0
 25 26  1  0
 25 27  1  0
 25 23  1  0
 23 20  1  0
 20 21  1  0
 20 22  1  0
 20 19  1  0
 19 15  1  0
 15 16  1  0
 15  1  1  0
  2  1  1  0
  2 11  1  0
 11 12  2  0
 11 13  1  0
  2  3  1  0
  4  3  1  0
  4  5  1  0
  5  6  1  0
  6  7  1  0
  7  8  1  0
  9  8  1  0
  9 10  1  0
 10  2  1  0
  9  4  1  0
 16 17  1  0
 16 18  1  0
 13 14  1  0
M  CHG 1  20   1
M  CHG 1  25   1
M  END
> <minimizedAffinity>
-3.92766

> <CNNscore>
0.5206733942

> <CNNaffinity>
6.6295056343

> <CNN_VS>
3.4518072605

> <CNNaffinity_variance>
0.2039229274

$$$$



 27 28  0  0  0  0  0  0  0  0999 V2000
   10.6679   42.0964   -1.7895 C   0  0  0  0  0  0  0  0  0  0  0  0
   11.5304   42.6833   -2.9292 C   0  0  0  0  0  0  0  0  0  0  0  0
   10.9792   44.0403   -3.3972 C   0  0  0  0  0  0  0  0  0  0  0  0
   11.2685   44.0095   -4.8823 C   0  0  0  0  0  0  0  0  0  0  0  0
   12.6480   44.3413   -5.0528 O   0  0  0  0  0  0  0  0  0  0  0  0
   13.1226   44.0553   -6.3675 C   0  0  0  0  0  0  0  0  0  0  0  0
   13.0528   42.5573   -6.6336 C   0  0  0  0  0  0  0  0  0  0  0  0
   11.6242   42.0460   -6.4797 C   0  0  0  0  0  0  0  0  0  0  0  0
   10.9674   42.5481   -5.2007 C   0  0  0  0  0  0  0  0  0  0  0  0
   11.4241   41.7823   -4.0563 O   0  0  0  0  0  0  0  0  0  0  0  0
   12.9808   42.8631   -2.4431 C   0  0  0  0  0  0  0  0  0  0  0  0
   13.5617   43.9343   -2.3352 O   0  0  0  0  0  0  0  0  0  0  0  0
   13.5757   41.7329   -2.0126 O   0  0  0  0  0  0  0  0  0  0  0  0
   13.1338   40.9106   -2.0936 H   0  0  0  0  0  0  0  0  0  0  0  0
   10.7126   42.7994   -0.4045 C   0  0  0  0  0  0  0  0  0  0  0  0
   12.0242   43.4343   -0.1539 N   0  0  0  0  0  0  0  0  0  0  0  0
   12.7469   42.7158   -0.1099 H   0  0  0  0  0  0  0  0  0  0  0  0
   11.9934   43.9402    0.7313 H   0  0  0  0  0  0  0  0  0  0  0  0
   10.2608   41.8744    0.7701 C   0  0  0  0  0  0  0  0  0  0  0  0
   11.4348   41.0995    1.5272 N   0  0  0  0  0  0  0  0  0  0  0  0
   12.5275   40.8138    0.5033 C   0  0  0  0  0  0  0  0  0  0  0  0
   11.9453   42.1190    2.5346 C   0  0  0  0  0  0  0  0  0  0  0  0
   10.8482   39.8331    2.1260 C   0  0  0  0  0  0  0  0  0  0  0  0
   11.8492   38.2870    3.9136 C   0  0  0  0  0  0  0  0  0  0  0  0
   11.7331   38.6321    2.4413 N   0  0  0  0  0  0  0  0  0  0  0  0
   13.1611   39.0541    1.9810 C   0  0  0  0  0  0  0  0  0  0  0  0
   11.3984   37.3854    1.6258 C   0  0  0  0  0  0  0  0  0  0  0  0
 24 25  1  0
 25 26  1  0
 25 27  1  0
 25 23  1  0
 23 20  1  0
 20 21  1  0
 20 22  1  0
 20 19  1  0
 19 15  1  0
 15 16  1  0
 15  1  1  0
  2  1  1  0
  2 11  1  0
 11 12  2  0
 11 13  1  0
  2  3  1  0
  4  3  1  0
  4  5  1  0
  5  6  1  0
  6  7  1  0
  7  8  1  0
  9  8  1  0
  9 10  1  0
 10  2  1  0
  9  4  1  0
 16 17  1  0
 16 18  1  0
 13 14  1  0
M  CHG 1  20   1
M  CHG 1  25   1
M  END
> <minimizedAffinity>
-3.44359

> <CNNscore>
0.4577425122

> <CNNaffinity>
4.8067932129

> <CNN_VS>
2.2002735138

> <CNNaffinity_variance>
0.1464716643

$$$$



 27 28  0  0  0  0  0  0  0  0999 V2000
    0.6895   45.6684    2.5549 C   0  0  0  0  0  0  0  0  0  0  0  0
    1.7544   45.3899    3.6393 C   0  0  0  0  0  0  0  0  0  0  0  0
    1.3066   44.2554    4.5756 C   0  0  0  0  0  0  0  0  0  0  0  0
    1.8720   44.6969    5.9081 C   0  0  0  0  0  0  0  0  0  0  0  0
    3.2599   44.3568    5.9138 O   0  0  0  0  0  0  0  0  0  0  0  0
    3.9740   44.9836    6.9781 C   0  0  0  0  0  0  0  0  0  0  0  0
    3.9505   46.4963    6.8029 C   0  0  0  0  0  0  0  0  0  0  0  0
    2.5169   47.0154    6.7693 C   0  0  0  0  0  0  0  0  0  0  0  0
    1.6315   46.2016    5.8349 C   0  0  0  0  0  0  0  0  0  0  0  0
    1.8603   46.5812    4.4536 O   0  0  0  0  0  0  0  0  0  0  0  0
    3.0870   45.0027    2.9712 C   0  0  0  0  0  0  0  0  0  0  0  0
    3.8557   44.1413    3.3758 O   0  0  0  0  0  0  0  0  0  0  0  0
    3.3262   45.6134    1.7937 O   0  0  0  0  0  0  0  0  0  0  0  0
    2.7396   46.2736    1.4806 H   0  0  0  0  0  0  0  0  0  0  0  0
    0.3470   44.5264    1.5584 C   0  0  0  0  0  0  0  0  0  0  0  0
   -0.9980   43.9655    1.8083 N   0  0  0  0  0  0  0  0  0  0  0  0
   -1.0182   43.5283    2.7296 H   0  0  0  0  0  0  0  0  0  0  0  0
   -1.2130   43.2677    1.0961 H   0  0  0  0  0  0  0  0  0  0  0  0
    1.4510   43.4242    1.4826 C   0  0  0  0  0  0  0  0  0  0  0  0
    1.1532   42.0929    2.3139 N   0  0  0  0  0  0  0  0  0  0  0  0
    0.2710   42.4803    3.4953 C   0  0  0  0  0  0  0  0  0  0  0  0
    0.3486   41.2385    1.3457 C   0  0  0  0  0  0  0  0  0  0  0  0
    2.4850   41.5045    2.7460 C   0  0  0  0  0  0  0  0  0  0  0  0
    3.8271   41.0171    4.8789 C   0  0  0  0  0  0  0  0  0  0  0  0
    2.6056   40.7021    4.0369 N   0  0  0  0  0  0  0  0  0  0  0  0
    2.7670   39.2220    3.5756 C   0  0  0  0  0  0  0  0  0  0  0  0
    1.3447   40.7211    4.8979 C   0  0  0  0  0  0  0  0  0  0  0  0
 24 25  1  0
 25 26  1  0
 25 27  1  0
 25 23  1  0
 23 20  1  0
 20 21  1  0
 20 22  1  0
 20 19  1  0
 19 15  1  0
 15 16  1  0
 15  1  1  0
  2  1  1  0
  2 11  1  0
 11 12  2  0
 11 13  1  0
  2  3  1  0
  4  3  1  0
  4  5  1  0
  5  6  1  0
  6  7  1  0
  7  8  1  0
  9  8  1  0
  9 10  1  0
 10  2  1  0
  9  4  1  0
 16 17  1  0
 16 18  1  0
 13 14  1  0
M  CHG 1  20   1
M  CHG 1  25   1
M  END
> <minimizedAffinity>
-0.44867

> <CNNscore>
0.4341793954

> <CNNaffinity>
6.3965945244

> <CNN_VS>
2.7772696018

> <CNNaffinity_variance>
0.6792672276

$$$$



 27 28  0  0  0  0  0  0  0  0999 V2000
   10.4959   41.8279   -0.3371 C   0  0  0  0  0  0  0  0  0  0  0  0
   11.3867   42.6979   -1.2520 C   0  0  0  0  0  0  0  0  0  0  0  0
   10.8548   44.1383   -1.3341 C   0  0  0  0  0  0  0  0  0  0  0  0
   11.1758   44.5181   -2.7634 C   0  0  0  0  0  0  0  0  0  0  0  0
   12.5608   44.8670   -2.8088 O   0  0  0  0  0  0  0  0  0  0  0  0
   13.0617   44.9521   -4.1420 C   0  0  0  0  0  0  0  0  0  0  0  0
   12.9876   43.5883   -4.8158 C   0  0  0  0  0  0  0  0  0  0  0  0
   11.5526   43.0721   -4.8372 C   0  0  0  0  0  0  0  0  0  0  0  0
   10.8718   43.2068   -3.4816 C   0  0  0  0  0  0  0  0  0  0  0  0
   11.2986   42.1474   -2.5871 O   0  0  0  0  0  0  0  0  0  0  0  0
   12.8274   42.7174   -0.7079 C   0  0  0  0  0  0  0  0  0  0  0  0
   13.5771   41.7519   -0.6598 O   0  0  0  0  0  0  0  0  0  0  0  0
   13.2873   43.9390   -0.3720 O   0  0  0  0  0  0  0  0  0  0  0  0
   12.7159   44.6808   -0.4077 H   0  0  0  0  0  0  0  0  0  0  0  0
   10.5525   42.0847    1.1943 C   0  0  0  0  0  0  0  0  0  0  0  0
   11.8868   42.5566    1.6223 N   0  0  0  0  0  0  0  0  0  0  0  0
   12.5772   41.8257    1.4504 H   0  0  0  0  0  0  0  0  0  0  0  0
   11.8661   42.7773    2.6179 H   0  0  0  0  0  0  0  0  0  0  0  0
   10.0457   40.8737    2.0405 C   0  0  0  0  0  0  0  0  0  0  0  0
   11.1690   39.8322    2.4939 N   0  0  0  0  0  0  0  0  0  0  0  0
   12.4869   40.5930    2.5843 C   0  0  0  0  0  0  0  0  0  0  0  0
   10.7312   39.4191    3.8912 C   0  0  0  0  0  0  0  0  0  0  0  0
   11.2087   38.7124    1.4687 C   0  0  0  0  0  0  0  0  0  0  0  0
   11.8827   36.2525    1.1818 C   0  0  0  0  0  0  0  0  0  0  0  0
   12.3225   37.6714    1.4875 N   0  0  0  0  0  0  0  0  0  0  0  0
   12.8351   37.6588    2.9594 C   0  0  0  0  0  0  0  0  0  0  0  0
   13.5362   38.0479    0.6409 C   0  0  0  0  0  0  0  0  0  0  0  0
 24 25  1  0
 25 26  1  0
 25 27  1  0
 25 23  1  0
 23 20  1  0
 20 21  1  0
 20 22  1  0
 20 19  1  0
 19 15  1  0
 15 16  1  0
 15  1  1  0
  2  1  1  0
  2 11  1  0
 11 12  2  0
 11 13  1  0
  2  3  1  0
  4  3  1  0
  4  5  1  0
  5  6  1  0
  6  7  1  0
  7  8  1  0
  9  8  1  0
  9 10  1  0
 10  2  1  0
  9  4  1  0
 16 17  1  0
 16 18  1  0
 13 14  1  0
M  CHG 1  20   1
M  CHG 1  25   1
M  END
> <minimizedAffinity>
-3.03009

> <CNNscore>
0.3967992067

> <CNNaffinity>
4.6780219078

> <CNN_VS>
1.8562353849

> <CNNaffinity_variance>
0.5587630868

$$$$



 27 28  0  0  0  0  0  0  0  0999 V2000
    1.3975   43.2008    1.4217 C   0  0  0  0  0  0  0  0  0  0  0  0
    1.0304   44.5483    2.0827 C   0  0  0  0  0  0  0  0  0  0  0  0
    1.6160   45.7298    1.2921 C   0  0  0  0  0  0  0  0  0  0  0  0
    1.9596   46.7124    2.3905 C   0  0  0  0  0  0  0  0  0  0  0  0
    0.7475   47.3696    2.7662 O   0  0  0  0  0  0  0  0  0  0  0  0
    0.8731   48.0958    3.9879 C   0  0  0  0  0  0  0  0  0  0  0  0
    1.1624   47.1389    5.1368 C   0  0  0  0  0  0  0  0  0  0  0  0
    2.4400   46.3483    4.8745 C   0  0  0  0  0  0  0  0  0  0  0  0
    2.4778   45.7650    3.4682 C   0  0  0  0  0  0  0  0  0  0  0  0
    1.6565   44.5719    3.3869 O   0  0  0  0  0  0  0  0  0  0  0  0
   -0.5015   44.6919    2.1531 C   0  0  0  0  0  0  0  0  0  0  0  0
   -1.2941   44.1975    1.3633 O   0  0  0  0  0  0  0  0  0  0  0  0
   -0.9586   45.3297    3.2490 O   0  0  0  0  0  0  0  0  0  0  0  0
   -0.3544   45.7097    3.8561 H   0  0  0  0  0  0  0  0  0  0  0  0
    1.3659   41.9226    2.3046 C   0  0  0  0  0  0  0  0  0  0  0  0
    0.1866   41.0811    2.0094 N   0  0  0  0  0  0  0  0  0  0  0  0
   -0.6636   41.5907    2.2502 H   0  0  0  0  0  0  0  0  0  0  0  0
    0.2354   40.2227    2.5581 H   0  0  0  0  0  0  0  0  0  0  0  0
    1.5201   42.2239    3.8294 C   0  0  0  0  0  0  0  0  0  0  0  0
    3.0136   42.1716    4.3941 N   0  0  0  0  0  0  0  0  0  0  0  0
    3.9433   42.6051    3.2665 C   0  0  0  0  0  0  0  0  0  0  0  0
    3.0209   43.2313    5.4859 C   0  0  0  0  0  0  0  0  0  0  0  0
    3.2856   40.7534    4.8644 C   0  0  0  0  0  0  0  0  0  0  0  0
    2.7115   39.7577    2.5694 C   0  0  0  0  0  0  0  0  0  0  0  0
    2.7802   39.5537    4.0708 N   0  0  0  0  0  0  0  0  0  0  0  0
    1.3108   39.3472    4.5479 C   0  0  0  0  0  0  0  0  0  0  0  0
    3.4984   38.2469    4.3993 C   0  0  0  0  0  0  0  0  0  0  0  0
 24 25  1  0
 25 26  1  0
 25 27  1  0
 25 23  1  0
 23 20  1  0
 20 21  1  0
 20 22  1  0
 20 19  1  0
 19 15  1  0
 15 16  1  0
 15  1  1  0
  2  1  1  0
  2 11  1  0
 11 12  2  0
 11 13  1  0
  2  3  1  0
  4  3  1  0
  4  5  1  0
  5  6  1  0
  6  7  1  0
  7  8  1  0
  9  8  1  0
  9 10  1  0
 10  2  1  0
  9  4  1  0
 16 17  1  0
 16 18  1  0
 13 14  1  0
M  CHG 1  20   1
M  CHG 1  25   1
M  END
> <minimizedAffinity>
0.12568

> <CNNscore>
0.3465615213

> <CNNaffinity>
6.3976426125

> <CNN_VS>
2.2171766758

> <CNNaffinity_variance>
0.1532528847

$$$$



 27 28  0  0  0  0  0  0  0  0999 V2000
   13.5774   41.0619   -0.4371 C   0  0  0  0  0  0  0  0  0  0  0  0
   12.7664   42.1952   -1.1044 C   0  0  0  0  0  0  0  0  0  0  0  0
   11.2558   41.9245   -1.0087 C   0  0  0  0  0  0  0  0  0  0  0  0
   10.7454   42.4861   -2.3180 C   0  0  0  0  0  0  0  0  0  0  0  0
   10.6536   43.9039   -2.1645 O   0  0  0  0  0  0  0  0  0  0  0  0
   10.4764   44.5800   -3.4083 C   0  0  0  0  0  0  0  0  0  0  0  0
   11.6958   44.3686   -4.2960 C   0  0  0  0  0  0  0  0  0  0  0  0
   11.9318   42.8829   -4.5470 C   0  0  0  0  0  0  0  0  0  0  0  0
   11.8653   42.0644   -3.2644 C   0  0  0  0  0  0  0  0  0  0  0  0
   13.0994   42.1904   -2.5124 O   0  0  0  0  0  0  0  0  0  0  0  0
   13.0878   43.5366   -0.4193 C   0  0  0  0  0  0  0  0  0  0  0  0
   12.8529   44.6425   -0.8868 O   0  0  0  0  0  0  0  0  0  0  0  0
   13.5644   43.4288    0.8368 O   0  0  0  0  0  0  0  0  0  0  0  0
   13.7455   42.5834    1.1982 H   0  0  0  0  0  0  0  0  0  0  0  0
   13.0439   40.4712    0.8974 C   0  0  0  0  0  0  0  0  0  0  0  0
   13.5617   39.1076    1.1394 N   0  0  0  0  0  0  0  0  0  0  0  0
   13.2159   38.4790    0.4143 H   0  0  0  0  0  0  0  0  0  0  0  0
   13.2449   38.7807    2.0522 H   0  0  0  0  0  0  0  0  0  0  0  0
   11.4898   40.5539    1.0292 C   0  0  0  0  0  0  0  0  0  0  0  0
   10.9482   41.3640    2.2951 N   0  0  0  0  0  0  0  0  0  0  0  0
   11.7104   42.6829    2.3532 C   0  0  0  0  0  0  0  0  0  0  0  0
    9.4929   41.6403    1.9477 C   0  0  0  0  0  0  0  0  0  0  0  0
   11.1691   40.5055    3.5283 C   0  0  0  0  0  0  0  0  0  0  0  0
   11.6338   38.0868    4.2508 C   0  0  0  0  0  0  0  0  0  0  0  0
   10.6876   39.0596    3.5735 N   0  0  0  0  0  0  0  0  0  0  0  0
   10.6060   38.6170    2.0812 C   0  0  0  0  0  0  0  0  0  0  0  0
    9.2717   38.8953    4.1209 C   0  0  0  0  0  0  0  0  0  0  0  0
 24 25  1  0
 25 26  1  0
 25 27  1  0
 25 23  1  0
 23 20  1  0
 20 21  1  0
 20 22  1  0
 20 19  1  0
 19 15  1  0
 15 16  1  0
 15  1  1  0
  2  1  1  0
  2 11  1  0
 11 12  2  0
 11 13  1  0
  2  3  1  0
  4  3  1  0
  4  5  1  0
  5  6  1  0
  6  7  1  0
  7  8  1  0
  9  8  1  0
  9 10  1  0
 10  2  1  0
  9  4  1  0
 16 17  1  0
 16 18  1  0
 13 14  1  0
M  CHG 1  20   1
M  CHG 1  25   1
M  END
> <minimizedAffinity>
-0.56122

> <CNNscore>
0.3408193290

> <CNNaffinity>
4.5762019157

> <CNN_VS>
1.5596580505

> <CNNaffinity_variance>
0.3969354928

$$$$



 27 28  0  0  0  0  0  0  0  0999 V2000
    1.0029   44.2279    1.6164 C   0  0  0  0  0  0  0  0  0  0  0  0
    1.4285   45.1732    2.7621 C   0  0  0  0  0  0  0  0  0  0  0  0
    2.7791   44.7451    3.3594 C   0  0  0  0  0  0  0  0  0  0  0  0
    2.6044   45.0841    4.8238 C   0  0  0  0  0  0  0  0  0  0  0  0
    2.8184   46.4902    4.9623 O   0  0  0  0  0  0  0  0  0  0  0  0
    2.3905   46.9882    6.2290 C   0  0  0  0  0  0  0  0  0  0  0  0
    0.8850   46.8129    6.3776 C   0  0  0  0  0  0  0  0  0  0  0  0
    0.4949   45.3446    6.2434 C   0  0  0  0  0  0  0  0  0  0  0  0
    1.1480   44.6831    5.0372 C   0  0  0  0  0  0  0  0  0  0  0  0
    0.4478   45.0383    3.8173 O   0  0  0  0  0  0  0  0  0  0  0  0
    1.5403   46.6148    2.2315 C   0  0  0  0  0  0  0  0  0  0  0  0
    2.1282   46.9484    1.2119 O   0  0  0  0  0  0  0  0  0  0  0  0
    0.8265   47.5268    2.9211 O   0  0  0  0  0  0  0  0  0  0  0  0
    0.3749   47.2749    3.7025 H   0  0  0  0  0  0  0  0  0  0  0  0
    1.0395   42.6973    1.8818 C   0  0  0  0  0  0  0  0  0  0  0  0
   -0.1060   42.0043    1.2543 N   0  0  0  0  0  0  0  0  0  0  0  0
   -0.9741   42.3267    1.6819 H   0  0  0  0  0  0  0  0  0  0  0  0
   -0.0120   40.9981    1.3928 H   0  0  0  0  0  0  0  0  0  0  0  0
    1.2018   42.3385    3.3932 C   0  0  0  0  0  0  0  0  0  0  0  0
    2.2140   41.1446    3.7127 N   0  0  0  0  0  0  0  0  0  0  0  0
    1.5484   40.2472    4.7498 C   0  0  0  0  0  0  0  0  0  0  0  0
    2.3138   40.3964    2.3917 C   0  0  0  0  0  0  0  0  0  0  0  0
    3.5120   41.7542    4.2129 C   0  0  0  0  0  0  0  0  0  0  0  0
    4.6621   40.7270    6.2648 C   0  0  0  0  0  0  0  0  0  0  0  0
    3.8094   41.8496    5.7053 N   0  0  0  0  0  0  0  0  0  0  0  0
    2.4197   41.7259    6.4001 C   0  0  0  0  0  0  0  0  0  0  0  0
    4.3593   43.2055    6.1416 C   0  0  0  0  0  0  0  0  0  0  0  0
 24 25  1  0
 25 26  1  0
 25 27  1  0
 25 23  1  0
 23 20  1  0
 20 21  1  0
 20 22  1  0
 20 19  1  0
 19 15  1  0
 15 16  1  0
 15  1  1  0
  2  1  1  0
  2 11  1  0
 11 12  2  0
 11 13  1  0
  2  3  1  0
  4  3  1  0
  4  5  1  0
  5  6  1  0
  6  7  1  0
  7  8  1  0
  9  8  1  0
  9 10  1  0
 10  2  1  0
  9  4  1  0
 16 17  1  0
 16 18  1  0
 13 14  1  0
M  CHG 1  20   1
M  CHG 1  25   1
M  END
> <minimizedAffinity>
-1.11098

> <CNNscore>
0.3333194852

> <CNNaffinity>
6.5053653717

> <CNN_VS>
2.1683650017

> <CNNaffinity_variance>
0.1182348505

$$$$



 27 28  0  0  0  0  0  0  0  0999 V2000
   10.6465   46.0935   -2.7390 C   0  0  0  0  0  0  0  0  0  0  0  0
   11.4219   44.8691   -2.2033 C   0  0  0  0  0  0  0  0  0  0  0  0
   11.1274   43.6164   -3.0449 C   0  0  0  0  0  0  0  0  0  0  0  0
   11.1547   42.5173   -2.0050 C   0  0  0  0  0  0  0  0  0  0  0  0
   12.5264   42.2078   -1.7507 O   0  0  0  0  0  0  0  0  0  0  0  0
   12.7010   41.4089   -0.5816 C   0  0  0  0  0  0  0  0  0  0  0  0
   12.2472   42.1803    0.6506 C   0  0  0  0  0  0  0  0  0  0  0  0
   10.7844   42.5928    0.5230 C   0  0  0  0  0  0  0  0  0  0  0  0
   10.4788   43.2192   -0.8311 C   0  0  0  0  0  0  0  0  0  0  0  0
   10.9289   44.5977   -0.8704 O   0  0  0  0  0  0  0  0  0  0  0  0
   12.9344   45.1586   -2.2331 C   0  0  0  0  0  0  0  0  0  0  0  0
   13.5764   45.6554   -1.3179 O   0  0  0  0  0  0  0  0  0  0  0  0
   13.5728   44.7118   -3.3329 O   0  0  0  0  0  0  0  0  0  0  0  0
   13.0843   44.3307   -4.0358 H   0  0  0  0  0  0  0  0  0  0  0  0
   10.3034   47.2337   -1.7407 C   0  0  0  0  0  0  0  0  0  0  0  0
    8.8476   47.3351   -1.5032 N   0  0  0  0  0  0  0  0  0  0  0  0
    8.3786   47.5930   -2.3715 H   0  0  0  0  0  0  0  0  0  0  0  0
    8.6674   48.0468   -0.7951 H   0  0  0  0  0  0  0  0  0  0  0  0
   10.9439   48.6044   -2.1284 C   0  0  0  0  0  0  0  0  0  0  0  0
    9.9682   49.6394   -2.8556 N   0  0  0  0  0  0  0  0  0  0  0  0
    9.4282   48.9557   -4.1066 C   0  0  0  0  0  0  0  0  0  0  0  0
    8.8354   49.8259   -1.8571 C   0  0  0  0  0  0  0  0  0  0  0  0
   10.7673   50.8916   -3.1716 C   0  0  0  0  0  0  0  0  0  0  0  0
   13.1853   51.5991   -3.6623 C   0  0  0  0  0  0  0  0  0  0  0  0
   11.9549   50.8435   -4.1266 N   0  0  0  0  0  0  0  0  0  0  0  0
   11.4624   51.5675   -5.4160 C   0  0  0  0  0  0  0  0  0  0  0  0
   12.3323   49.4335   -4.5748 C   0  0  0  0  0  0  0  0  0  0  0  0
 24 25  1  0
 25 26  1  0
 25 27  1  0
 25 23  1  0
 23 20  1  0
 20 21  1  0
 20 22  1  0
 20 19  1  0
 19 15  1  0
 15 16  1  0
 15  1  1  0
  2  1  1  0
  2 11  1  0
 11 12  2  0
 11 13  1  0
  2  3  1  0
  4  3  1  0
  4  5  1  0
  5  6  1  0
  6  7  1  0
  7  8  1  0
  9  8  1  0
  9 10  1  0
 10  2  1  0
  9  4  1  0
 16 17  1  0
 16 18  1  0
 13 14  1  0
M  CHG 1  20   1
M  CHG 1  25   1
M  END
> <minimizedAffinity>
-1.19365

> <CNNscore>
0.3241002560

> <CNNaffinity>
4.7765812874

> <CNN_VS>
1.5480911732

> <CNNaffinity_variance>
0.1128237173

$$$$



 27 28  0  0  0  0  0  0  0  0999 V2000
    3.7590   40.3927    4.8669 C   0  0  0  0  0  0  0  0  0  0  0  0
    2.8114   41.5610    4.5141 C   0  0  0  0  0  0  0  0  0  0  0  0
    1.9094   41.2008    3.3221 C   0  0  0  0  0  0  0  0  0  0  0  0
    1.7812   42.5269    2.6042 C   0  0  0  0  0  0  0  0  0  0  0  0
    0.8024   43.2962    3.3057 O   0  0  0  0  0  0  0  0  0  0  0  0
    0.8035   44.6695    2.9188 C   0  0  0  0  0  0  0  0  0  0  0  0
    2.1334   45.3144    3.2860 C   0  0  0  0  0  0  0  0  0  0  0  0
    3.2922   44.5885    2.6104 C   0  0  0  0  0  0  0  0  0  0  0  0
    3.1949   43.0769    2.7677 C   0  0  0  0  0  0  0  0  0  0  0  0
    3.6370   42.6703    4.0882 O   0  0  0  0  0  0  0  0  0  0  0  0
    1.9332   41.9034    5.7321 C   0  0  0  0  0  0  0  0  0  0  0  0
    1.7106   43.0325    6.1471 O   0  0  0  0  0  0  0  0  0  0  0  0
    1.2962   40.8507    6.2823 O   0  0  0  0  0  0  0  0  0  0  0  0
    1.4642   39.9845    5.9670 H   0  0  0  0  0  0  0  0  0  0  0  0
    4.6985   40.5602    6.0931 C   0  0  0  0  0  0  0  0  0  0  0  0
    5.1502   41.9592    6.2509 N   0  0  0  0  0  0  0  0  0  0  0  0
    5.7155   42.2269    5.4452 H   0  0  0  0  0  0  0  0  0  0  0  0
    5.7082   42.0426    7.1006 H   0  0  0  0  0  0  0  0  0  0  0  0
    5.8840   39.5434    6.1035 C   0  0  0  0  0  0  0  0  0  0  0  0
    6.5511   39.2779    7.5305 N   0  0  0  0  0  0  0  0  0  0  0  0
    5.8711   40.2047    8.5317 C   0  0  0  0  0  0  0  0  0  0  0  0
    6.1708   37.8378    7.8413 C   0  0  0  0  0  0  0  0  0  0  0  0
    8.0413   39.5430    7.4060 C   0  0  0  0  0  0  0  0  0  0  0  0
   10.3355   38.5003    7.8933 C   0  0  0  0  0  0  0  0  0  0  0  0
    9.0209   38.4047    7.1430 N   0  0  0  0  0  0  0  0  0  0  0  0
    9.3758   38.5223    5.6299 C   0  0  0  0  0  0  0  0  0  0  0  0
    8.4126   37.0139    7.3076 C   0  0  0  0  0  0  0  0  0  0  0  0
 24 25  1  0
 25 26  1  0
 25 27  1  0
 25 23  1  0
 23 20  1  0
 20 21  1  0
 20 22  1  0
 20 19  1  0
 19 15  1  0
 15 16  1  0
 15  1  1  0
  2  1  1  0
  2 11  1  0
 11 12  2  0
 11 13  1  0
  2  3  1  0
  4  3  1  0
  4  5  1  0
  5  6  1  0
  6  7  1  0
  7  8  1  0
  9  8  1  0
  9 10  1  0
 10  2  1  0
  9  4  1  0
 16 17  1  0
 16 18  1  0
 13 14  1  0
M  CHG 1  20   1
M  CHG 1  25   1
M  END
> <minimizedAffinity>
-1.86452

> <CNNscore>
0.3010725379

> <CNNaffinity>
5.9092869759

> <CNN_VS>
1.7791240215

> <CNNaffinity_variance>
0.0657062754

$$$$
