


 39 41  0  0  0  0  0  0  0  0999 V2000
  -20.6805   30.4779    9.7933 C   0  0  0  0  0  0  0  0  0  0  0  0
  -19.8416   30.0148   10.7363 C   0  0  0  0  0  0  0  0  0  0  0  0
  -20.0519   29.9433   12.2241 C   0  0  0  0  0  0  0  0  0  0  0  0
  -18.8574   29.3533   12.7756 O   0  0  0  0  0  0  0  0  0  0  0  0
  -18.1620   30.3596   13.5445 C   0  0  0  0  0  0  0  0  0  0  0  0
  -18.8642   31.6969   13.2982 C   0  0  0  0  0  0  0  0  0  0  0  0
  -18.8287   32.5684   14.4290 O   0  0  0  0  0  0  0  0  0  0  0  0
  -20.2805   31.2469   12.9954 C   0  0  0  0  0  0  0  0  0  0  0  0
  -20.9369   31.0023   14.2563 O   0  0  0  0  0  0  0  0  0  0  0  0
  -19.2328   32.1254   15.1915 H   0  0  0  0  0  0  0  0  0  0  0  0
  -20.4126   30.3739   14.7771 H   0  0  0  0  0  0  0  0  0  0  0  0
  -16.7573   30.3880   13.1588 N   0  0  0  0  0  0  0  0  0  0  0  0
  -16.2421   31.1857   12.1743 C   0  0  0  0  0  0  0  0  0  0  0  0
  -14.9497   31.0009   12.0318 N   0  0  0  0  0  0  0  0  0  0  0  0
  -14.5940   30.0416   12.9729 C   0  0  0  0  0  0  0  0  0  0  0  0
  -15.7241   29.6558   13.6759 C   0  0  0  0  0  0  0  0  0  0  0  0
  -13.1827   29.5519   13.1303 C   0  0  0  0  0  0  0  0  0  0  0  0
  -12.6772   29.8499   14.3605 F   0  0  0  0  0  0  0  0  0  0  0  0
  -12.3312   30.0997   12.2232 F   0  0  0  0  0  0  0  0  0  0  0  0
  -13.0920   28.2013   12.9974 F   0  0  0  0  0  0  0  0  0  0  0  0
  -20.3487   30.5032    8.3321 C   0  0  0  0  0  0  0  0  0  0  0  0
  -22.6088   31.4216    6.9600 O   0  0  0  0  0  0  0  0  0  0  0  0
  -22.4222   30.2134    7.0597 C   0  0  0  0  0  0  0  0  0  0  0  0
  -21.3043   29.6731    7.6480 N   0  0  0  0  0  0  0  0  0  0  0  0
  -21.1546   28.7012    7.6007 H   0  0  0  0  0  0  0  0  0  0  0  0
  -23.4427   29.2614    6.5238 C   0  0  0  0  0  0  0  0  0  0  0  0
  -24.4497   29.7979    5.6988 C   0  0  0  0  0  0  0  0  0  0  0  0
  -25.4314   28.9556    5.1571 C   0  0  0  0  0  0  0  0  0  0  0  0
  -25.4418   27.5954    5.4281 C   0  0  0  0  0  0  0  0  0  0  0  0
  -26.3883   26.7750    4.9508 F   0  0  0  0  0  0  0  0  0  0  0  0
  -24.4524   27.0663    6.2460 C   0  0  0  0  0  0  0  0  0  0  0  0
  -24.4191   25.7290    6.5506 O   0  0  0  0  0  0  0  0  0  0  0  0
  -23.4582   27.8845    6.7921 C   0  0  0  0  0  0  0  0  0  0  0  0
  -22.5219   27.2842    7.5976 O   0  0  0  0  0  0  0  0  0  0  0  0
  -25.0702   25.1527    6.2016 H   0  0  0  0  0  0  0  0  0  0  0  0
  -22.5622   26.3615    7.7555 H   0  0  0  0  0  0  0  0  0  0  0  0
  -26.4546   29.5118    4.2997 N   0  0  0  0  0  0  0  0  0  0  0  0
  -26.7522   30.7015    4.4643 O   0  0  0  0  0  0  0  0  0  0  0  0
  -26.9726   28.7481    3.4752 O   0  0  0  0  0  0  0  0  0  0  0  0
 22 23  2  0
 23 24  1  0
 24 21  1  0
 21  1  1  0
  1  2  2  0
  3  2  1  0
  3  4  1  0
  4  5  1  0
  5 12  1  0
 12 13  1  0
 13 14  2  0
 14 15  1  0
 15 17  1  0
 17 18  1  0
 17 19  1  0
 17 20  1  0
 15 16  2  0
  5  6  1  0
  6  7  1  0
  6  8  1  0
  8  9  1  0
 23 26  1  0
 26 27  2  0
 27 28  1  0
 28 37  1  0
 37 38  2  0
 37 39  1  0
 28 29  2  0
 29 30  1  0
 29 31  1  0
 31 32  1  0
 31 33  2  0
 33 34  1  0
  8  3  1  0
 33 26  1  0
 16 12  1  0
 24 25  1  0
  7 10  1  0
  9 11  1  0
 32 35  1  0
 34 36  1  0
M  CHG 1  37   1
M  CHG 1  39  -1
M  END
> <minimizedAffinity>
-10.62090

> <CNNscore>
0.9293460846

> <CNNaffinity>
7.0708222389

> <CNN_VS>
6.5712409019

> <CNNaffinity_variance>
0.3308538795

$$$$



 39 41  0  0  0  0  0  0  0  0999 V2000
  -22.2225   33.7417    7.1719 C   0  0  0  0  0  0  0  0  0  0  0  0
  -21.4510   34.6802    7.7477 C   0  0  0  0  0  0  0  0  0  0  0  0
  -21.5736   36.1769    7.6599 C   0  0  0  0  0  0  0  0  0  0  0  0
  -20.2851   36.7123    8.0239 O   0  0  0  0  0  0  0  0  0  0  0  0
  -19.6896   37.3108    6.8514 C   0  0  0  0  0  0  0  0  0  0  0  0
  -20.5732   36.9581    5.6527 C   0  0  0  0  0  0  0  0  0  0  0  0
  -20.5946   37.9750    4.6502 O   0  0  0  0  0  0  0  0  0  0  0  0
  -21.9317   36.8049    6.3093 C   0  0  0  0  0  0  0  0  0  0  0  0
  -22.4847   38.1267    6.4755 O   0  0  0  0  0  0  0  0  0  0  0  0
  -20.8974   38.8090    5.0421 H   0  0  0  0  0  0  0  0  0  0  0  0
  -21.8564   38.6809    6.9644 H   0  0  0  0  0  0  0  0  0  0  0  0
  -18.3224   36.8315    6.6967 N   0  0  0  0  0  0  0  0  0  0  0  0
  -17.8992   36.0169    5.6826 C   0  0  0  0  0  0  0  0  0  0  0  0
  -16.6215   35.7340    5.7937 N   0  0  0  0  0  0  0  0  0  0  0  0
  -16.1791   36.4006    6.9305 C   0  0  0  0  0  0  0  0  0  0  0  0
  -17.2426   37.0846    7.4973 C   0  0  0  0  0  0  0  0  0  0  0  0
  -14.7549   36.3298    7.4028 C   0  0  0  0  0  0  0  0  0  0  0  0
  -14.3274   35.0421    7.5321 F   0  0  0  0  0  0  0  0  0  0  0  0
  -14.5725   36.9177    8.6149 F   0  0  0  0  0  0  0  0  0  0  0  0
  -13.8976   36.9312    6.5349 F   0  0  0  0  0  0  0  0  0  0  0  0
  -21.9908   32.2696    7.3309 C   0  0  0  0  0  0  0  0  0  0  0  0
  -22.1895   29.5017    6.9656 O   0  0  0  0  0  0  0  0  0  0  0  0
  -23.0971   30.2226    6.5640 C   0  0  0  0  0  0  0  0  0  0  0  0
  -23.1211   31.5814    6.7664 N   0  0  0  0  0  0  0  0  0  0  0  0
  -23.9257   32.0928    6.5208 H   0  0  0  0  0  0  0  0  0  0  0  0
  -24.2434   29.6205    5.8168 C   0  0  0  0  0  0  0  0  0  0  0  0
  -25.1432   30.5090    5.1975 C   0  0  0  0  0  0  0  0  0  0  0  0
  -26.2341   30.0067    4.4737 C   0  0  0  0  0  0  0  0  0  0  0  0
  -26.4576   28.6423    4.3633 C   0  0  0  0  0  0  0  0  0  0  0  0
  -27.5115   28.1378    3.7063 F   0  0  0  0  0  0  0  0  0  0  0  0
  -25.5741   27.7655    4.9782 C   0  0  0  0  0  0  0  0  0  0  0  0
  -25.7514   26.4070    4.9052 O   0  0  0  0  0  0  0  0  0  0  0  0
  -24.4744   28.2418    5.6994 C   0  0  0  0  0  0  0  0  0  0  0  0
  -23.6541   27.3087    6.2844 O   0  0  0  0  0  0  0  0  0  0  0  0
  -26.4778   26.0542    4.4301 H   0  0  0  0  0  0  0  0  0  0  0  0
  -23.8382   26.3953    6.1855 H   0  0  0  0  0  0  0  0  0  0  0  0
  -27.1463   30.9253    3.8290 N   0  0  0  0  0  0  0  0  0  0  0  0
  -28.3184   30.9377    4.2254 O   0  0  0  0  0  0  0  0  0  0  0  0
  -26.6898   31.6191    2.9116 O   0  0  0  0  0  0  0  0  0  0  0  0
 22 23  2  0
 23 24  1  0
 24 21  1  0
 21  1  1  0
  1  2  2  0
  3  2  1  0
  3  4  1  0
  4  5  1  0
  5 12  1  0
 12 13  1  0
 13 14  2  0
 14 15  1  0
 15 17  1  0
 17 18  1  0
 17 19  1  0
 17 20  1  0
 15 16  2  0
  5  6  1  0
  6  7  1  0
  6  8  1  0
  8  9  1  0
 23 26  1  0
 26 27  2  0
 27 28  1  0
 28 37  1  0
 37 38  2  0
 37 39  1  0
 28 29  2  0
 29 30  1  0
 29 31  1  0
 31 32  1  0
 31 33  2  0
 33 34  1  0
  8  3  1  0
 33 26  1  0
 16 12  1  0
 24 25  1  0
  7 10  1  0
  9 11  1  0
 32 35  1  0
 34 36  1  0
M  CHG 1  37   1
M  CHG 1  39  -1
M  END
> <minimizedAffinity>
-6.64728

> <CNNscore>
0.6901201010

> <CNNaffinity>
5.6738791466

> <CNN_VS>
3.9156579971

> <CNNaffinity_variance>
0.0561384596

$$$$



 39 41  0  0  0  0  0  0  0  0999 V2000
  -24.3477   34.5635    7.5758 C   0  0  0  0  0  0  0  0  0  0  0  0
  -24.7349   34.5636    8.8632 C   0  0  0  0  0  0  0  0  0  0  0  0
  -25.7127   35.4794    9.5474 C   0  0  0  0  0  0  0  0  0  0  0  0
  -26.7770   35.7156    8.6037 O   0  0  0  0  0  0  0  0  0  0  0  0
  -27.9763   35.0780    9.0963 C   0  0  0  0  0  0  0  0  0  0  0  0
  -27.5868   34.2394   10.3158 C   0  0  0  0  0  0  0  0  0  0  0  0
  -28.6190   34.1631   11.2998 O   0  0  0  0  0  0  0  0  0  0  0  0
  -26.3842   35.0013   10.8387 C   0  0  0  0  0  0  0  0  0  0  0  0
  -26.8784   36.1119   11.6152 O   0  0  0  0  0  0  0  0  0  0  0  0
  -28.8604   35.0581   11.5853 H   0  0  0  0  0  0  0  0  0  0  0  0
  -27.4899   36.6371   11.0755 H   0  0  0  0  0  0  0  0  0  0  0  0
  -28.5763   34.2770    8.0373 N   0  0  0  0  0  0  0  0  0  0  0  0
  -27.8714   33.4813    7.1765 C   0  0  0  0  0  0  0  0  0  0  0  0
  -28.6634   32.8807    6.3180 N   0  0  0  0  0  0  0  0  0  0  0  0
  -29.9529   33.2936    6.6330 C   0  0  0  0  0  0  0  0  0  0  0  0
  -29.8989   34.1688    7.7060 C   0  0  0  0  0  0  0  0  0  0  0  0
  -31.1586   32.8206    5.8721 C   0  0  0  0  0  0  0  0  0  0  0  0
  -32.1681   32.4430    6.7062 F   0  0  0  0  0  0  0  0  0  0  0  0
  -30.8939   31.7476    5.0805 F   0  0  0  0  0  0  0  0  0  0  0  0
  -31.6702   33.7919    5.0691 F   0  0  0  0  0  0  0  0  0  0  0  0
  -23.3516   33.5959    7.0122 C   0  0  0  0  0  0  0  0  0  0  0  0
  -22.2183   31.0375    6.9464 O   0  0  0  0  0  0  0  0  0  0  0  0
  -23.3908   31.1788    6.6146 C   0  0  0  0  0  0  0  0  0  0  0  0
  -24.0512   32.3813    6.6874 N   0  0  0  0  0  0  0  0  0  0  0  0
  -25.0199   32.4125    6.5143 H   0  0  0  0  0  0  0  0  0  0  0  0
  -24.1609   30.0036    6.1040 C   0  0  0  0  0  0  0  0  0  0  0  0
  -25.2567   30.2717    5.2615 C   0  0  0  0  0  0  0  0  0  0  0  0
  -26.0141   29.2120    4.7420 C   0  0  0  0  0  0  0  0  0  0  0  0
  -25.7147   27.8937    5.0522 C   0  0  0  0  0  0  0  0  0  0  0  0
  -26.4435   26.8650    4.5965 F   0  0  0  0  0  0  0  0  0  0  0  0
  -24.6377   27.6286    5.8873 C   0  0  0  0  0  0  0  0  0  0  0  0
  -24.3013   26.3435    6.2306 O   0  0  0  0  0  0  0  0  0  0  0  0
  -23.8625   28.6678    6.4119 C   0  0  0  0  0  0  0  0  0  0  0  0
  -22.8208   28.3209    7.2367 O   0  0  0  0  0  0  0  0  0  0  0  0
  -24.7996   25.6237    5.8968 H   0  0  0  0  0  0  0  0  0  0  0  0
  -22.6498   27.4183    7.4211 H   0  0  0  0  0  0  0  0  0  0  0  0
  -27.1299   29.4946    3.8664 N   0  0  0  0  0  0  0  0  0  0  0  0
  -27.5564   28.5664    3.1681 O   0  0  0  0  0  0  0  0  0  0  0  0
  -27.5640   30.6534    3.8660 O   0  0  0  0  0  0  0  0  0  0  0  0
 22 23  2  0
 23 24  1  0
 24 21  1  0
 21  1  1  0
  1  2  2  0
  3  2  1  0
  3  4  1  0
  4  5  1  0
  5 12  1  0
 12 13  1  0
 13 14  2  0
 14 15  1  0
 15 17  1  0
 17 18  1  0
 17 19  1  0
 17 20  1  0
 15 16  2  0
  5  6  1  0
  6  7  1  0
  6  8  1  0
  8  9  1  0
 23 26  1  0
 26 27  2  0
 27 28  1  0
 28 37  1  0
 37 38  2  0
 37 39  1  0
 28 29  2  0
 29 30  1  0
 29 31  1  0
 31 32  1  0
 31 33  2  0
 33 34  1  0
  8  3  1  0
 33 26  1  0
 16 12  1  0
 24 25  1  0
  7 10  1  0
  9 11  1  0
 32 35  1  0
 34 36  1  0
M  CHG 1  37   1
M  CHG 1  39  -1
M  END
> <minimizedAffinity>
-6.29502

> <CNNscore>
0.4612574577

> <CNNaffinity>
5.8804678917

> <CNN_VS>
2.7124097347

> <CNNaffinity_variance>
0.0650390312

$$$$



 39 41  0  0  0  0  0  0  0  0999 V2000
  -20.2976   30.1399    9.6501 C   0  0  0  0  0  0  0  0  0  0  0  0
  -19.4198   30.6798   10.5136 C   0  0  0  0  0  0  0  0  0  0  0  0
  -18.9613   30.1429   11.8418 C   0  0  0  0  0  0  0  0  0  0  0  0
  -18.5390   31.2830   12.6172 O   0  0  0  0  0  0  0  0  0  0  0  0
  -19.4684   31.4648   13.7084 C   0  0  0  0  0  0  0  0  0  0  0  0
  -20.6370   30.5020   13.4860 C   0  0  0  0  0  0  0  0  0  0  0  0
  -21.2088   30.0197   14.7024 O   0  0  0  0  0  0  0  0  0  0  0  0
  -19.9674   29.3828   12.7118 C   0  0  0  0  0  0  0  0  0  0  0  0
  -19.2987   28.5341   13.6673 O   0  0  0  0  0  0  0  0  0  0  0  0
  -20.5233   29.5813   15.2305 H   0  0  0  0  0  0  0  0  0  0  0  0
  -18.6989   29.0688   14.2106 H   0  0  0  0  0  0  0  0  0  0  0  0
  -19.8952   32.8568   13.7624 N   0  0  0  0  0  0  0  0  0  0  0  0
  -19.3573   33.7983   14.5961 C   0  0  0  0  0  0  0  0  0  0  0  0
  -19.9370   34.9666   14.4408 N   0  0  0  0  0  0  0  0  0  0  0  0
  -20.8972   34.7891   13.4515 C   0  0  0  0  0  0  0  0  0  0  0  0
  -20.8737   33.4696   13.0288 C   0  0  0  0  0  0  0  0  0  0  0  0
  -21.7837   35.9062   12.9796 C   0  0  0  0  0  0  0  0  0  0  0  0
  -23.0486   35.7925   13.4742 F   0  0  0  0  0  0  0  0  0  0  0  0
  -21.9036   35.9471   11.6261 F   0  0  0  0  0  0  0  0  0  0  0  0
  -21.3268   37.1243   13.3764 F   0  0  0  0  0  0  0  0  0  0  0  0
  -20.6806   30.7818    8.3511 C   0  0  0  0  0  0  0  0  0  0  0  0
  -22.7790   31.5676    6.6738 O   0  0  0  0  0  0  0  0  0  0  0  0
  -22.6255   30.3754    6.9180 C   0  0  0  0  0  0  0  0  0  0  0  0
  -21.5805   29.8916    7.6672 N   0  0  0  0  0  0  0  0  0  0  0  0
  -21.4451   28.9190    7.7374 H   0  0  0  0  0  0  0  0  0  0  0  0
  -23.6068   29.3802    6.3871 C   0  0  0  0  0  0  0  0  0  0  0  0
  -24.6136   29.8659    5.5310 C   0  0  0  0  0  0  0  0  0  0  0  0
  -25.5591   28.9814    4.9924 C   0  0  0  0  0  0  0  0  0  0  0  0
  -25.5340   27.6284    5.2964 C   0  0  0  0  0  0  0  0  0  0  0  0
  -26.4463   26.7683    4.8222 F   0  0  0  0  0  0  0  0  0  0  0  0
  -24.5448   27.1494    6.1449 C   0  0  0  0  0  0  0  0  0  0  0  0
  -24.4772   25.8214    6.4829 O   0  0  0  0  0  0  0  0  0  0  0  0
  -23.5861   28.0103    6.6888 C   0  0  0  0  0  0  0  0  0  0  0  0
  -22.6476   27.4582    7.5257 O   0  0  0  0  0  0  0  0  0  0  0  0
  -25.1040   25.2173    6.1363 H   0  0  0  0  0  0  0  0  0  0  0  0
  -22.6633   26.5388    7.7054 H   0  0  0  0  0  0  0  0  0  0  0  0
  -26.5821   29.4855    4.1030 N   0  0  0  0  0  0  0  0  0  0  0  0
  -26.7408   30.7116    4.0528 O   0  0  0  0  0  0  0  0  0  0  0  0
  -27.2389   28.6486    3.4709 O   0  0  0  0  0  0  0  0  0  0  0  0
 22 23  2  0
 23 24  1  0
 24 21  1  0
 21  1  1  0
  1  2  2  0
  3  2  1  0
  3  4  1  0
  4  5  1  0
  5 12  1  0
 12 13  1  0
 13 14  2  0
 14 15  1  0
 15 17  1  0
 17 18  1  0
 17 19  1  0
 17 20  1  0
 15 16  2  0
  5  6  1  0
  6  7  1  0
  6  8  1  0
  8  9  1  0
 23 26  1  0
 26 27  2  0
 27 28  1  0
 28 37  1  0
 37 38  2  0
 37 39  1  0
 28 29  2  0
 29 30  1  0
 29 31  1  0
 31 32  1  0
 31 33  2  0
 33 34  1  0
  8  3  1  0
 33 26  1  0
 16 12  1  0
 24 25  1  0
  7 10  1  0
  9 11  1  0
 32 35  1  0
 34 36  1  0
M  CHG 1  37   1
M  CHG 1  39  -1
M  END
> <minimizedAffinity>
-8.71170

> <CNNscore>
0.4378045201

> <CNNaffinity>
6.2923293114

> <CNN_VS>
2.7548103333

> <CNNaffinity_variance>
0.0039453977

$$$$



 39 41  0  0  0  0  0  0  0  0999 V2000
  -22.4771   33.8103    8.2867 C   0  0  0  0  0  0  0  0  0  0  0  0
  -22.5821   33.4165    9.5679 C   0  0  0  0  0  0  0  0  0  0  0  0
  -23.1413   34.1772   10.7390 C   0  0  0  0  0  0  0  0  0  0  0  0
  -22.9445   33.3417   11.8977 O   0  0  0  0  0  0  0  0  0  0  0  0
  -21.9610   33.9667   12.7518 C   0  0  0  0  0  0  0  0  0  0  0  0
  -21.3761   35.1576   11.9891 C   0  0  0  0  0  0  0  0  0  0  0  0
  -21.0031   36.2427   12.8393 O   0  0  0  0  0  0  0  0  0  0  0  0
  -22.5329   35.5396   11.0858 C   0  0  0  0  0  0  0  0  0  0  0  0
  -23.4463   36.3389   11.8652 O   0  0  0  0  0  0  0  0  0  0  0  0
  -21.7746   36.5325   13.3510 H   0  0  0  0  0  0  0  0  0  0  0  0
  -23.6984   35.8532   12.6662 H   0  0  0  0  0  0  0  0  0  0  0  0
  -20.9456   32.9911   13.1262 N   0  0  0  0  0  0  0  0  0  0  0  0
  -20.2692   32.9972   14.3150 C   0  0  0  0  0  0  0  0  0  0  0  0
  -19.4064   32.0093   14.3832 N   0  0  0  0  0  0  0  0  0  0  0  0
  -19.5255   31.3136   13.1856 C   0  0  0  0  0  0  0  0  0  0  0  0
  -20.4856   31.9286   12.3980 C   0  0  0  0  0  0  0  0  0  0  0  0
  -18.6981   30.0993   12.8737 C   0  0  0  0  0  0  0  0  0  0  0  0
  -18.3720   30.0342   11.5519 F   0  0  0  0  0  0  0  0  0  0  0  0
  -19.3379   28.9366   13.1682 F   0  0  0  0  0  0  0  0  0  0  0  0
  -17.5224   30.0918   13.5576 F   0  0  0  0  0  0  0  0  0  0  0  0
  -21.8890   32.9559    7.2049 C   0  0  0  0  0  0  0  0  0  0  0  0
  -21.5076   30.1872    7.3546 O   0  0  0  0  0  0  0  0  0  0  0  0
  -22.5586   30.6200    6.8934 C   0  0  0  0  0  0  0  0  0  0  0  0
  -22.8640   31.9588    6.8508 N   0  0  0  0  0  0  0  0  0  0  0  0
  -23.7655   32.2408    6.5733 H   0  0  0  0  0  0  0  0  0  0  0  0
  -23.5728   29.6678    6.3457 C   0  0  0  0  0  0  0  0  0  0  0  0
  -24.5718   30.2046    5.5112 C   0  0  0  0  0  0  0  0  0  0  0  0
  -25.5470   29.3622    4.9584 C   0  0  0  0  0  0  0  0  0  0  0  0
  -25.5590   28.0016    5.2273 C   0  0  0  0  0  0  0  0  0  0  0  0
  -26.4998   27.1810    4.7392 F   0  0  0  0  0  0  0  0  0  0  0  0
  -24.5775   27.4723    6.0545 C   0  0  0  0  0  0  0  0  0  0  0  0
  -24.5461   26.1346    6.3576 O   0  0  0  0  0  0  0  0  0  0  0  0
  -23.5897   28.2906    6.6119 C   0  0  0  0  0  0  0  0  0  0  0  0
  -22.6611   27.6899    7.4261 O   0  0  0  0  0  0  0  0  0  0  0  0
  -25.1931   25.5581    6.0011 H   0  0  0  0  0  0  0  0  0  0  0  0
  -22.7022   26.7670    7.5823 H   0  0  0  0  0  0  0  0  0  0  0  0
  -26.5619   29.9187    4.0912 N   0  0  0  0  0  0  0  0  0  0  0  0
  -26.4233   31.0947    3.7322 O   0  0  0  0  0  0  0  0  0  0  0  0
  -27.5078   29.1806    3.7879 O   0  0  0  0  0  0  0  0  0  0  0  0
 22 23  2  0
 23 24  1  0
 24 21  1  0
 21  1  1  0
  1  2  2  0
  3  2  1  0
  3  4  1  0
  4  5  1  0
  5 12  1  0
 12 13  1  0
 13 14  2  0
 14 15  1  0
 15 17  1  0
 17 18  1  0
 17 19  1  0
 17 20  1  0
 15 16  2  0
  5  6  1  0
  6  7  1  0
  6  8  1  0
  8  9  1  0
 23 26  1  0
 26 27  2  0
 27 28  1  0
 28 37  1  0
 37 38  2  0
 37 39  1  0
 28 29  2  0
 29 30  1  0
 29 31  1  0
 31 32  1  0
 31 33  2  0
 33 34  1  0
  8  3  1  0
 33 26  1  0
 16 12  1  0
 24 25  1  0
  7 10  1  0
  9 11  1  0
 32 35  1  0
 34 36  1  0
M  CHG 1  37   1
M  CHG 1  39  -1
M  END
> <minimizedAffinity>
-8.67502

> <CNNscore>
0.4127447009

> <CNNaffinity>
5.7901854515

> <CNN_VS>
2.3898682594

> <CNNaffinity_variance>
0.0598213375

$$$$



 39 41  0  0  0  0  0  0  0  0999 V2000
  -22.7674   33.9202    8.6425 C   0  0  0  0  0  0  0  0  0  0  0  0
  -22.5128   33.7559    9.9524 C   0  0  0  0  0  0  0  0  0  0  0  0
  -23.0654   34.5292   11.1184 C   0  0  0  0  0  0  0  0  0  0  0  0
  -24.1634   35.3099   10.6046 O   0  0  0  0  0  0  0  0  0  0  0  0
  -25.3930   34.7921   11.1592 C   0  0  0  0  0  0  0  0  0  0  0  0
  -25.0553   33.5000   11.9065 C   0  0  0  0  0  0  0  0  0  0  0  0
  -25.8871   33.2741   13.0452 O   0  0  0  0  0  0  0  0  0  0  0  0
  -23.6174   33.7520   12.3176 C   0  0  0  0  0  0  0  0  0  0  0  0
  -23.6428   34.5694   13.5058 O   0  0  0  0  0  0  0  0  0  0  0  0
  -25.8164   34.0276   13.6518 H   0  0  0  0  0  0  0  0  0  0  0  0
  -24.1640   35.3698   13.3365 H   0  0  0  0  0  0  0  0  0  0  0  0
  -26.3623   34.5820   10.0919 N   0  0  0  0  0  0  0  0  0  0  0  0
  -26.0953   34.7513    8.7611 C   0  0  0  0  0  0  0  0  0  0  0  0
  -27.1524   34.5024    8.0224 N   0  0  0  0  0  0  0  0  0  0  0  0
  -28.1623   34.1437    8.9077 C   0  0  0  0  0  0  0  0  0  0  0  0
  -27.6699   34.1960   10.2019 C   0  0  0  0  0  0  0  0  0  0  0  0
  -29.5446   33.7781    8.4474 C   0  0  0  0  0  0  0  0  0  0  0  0
  -29.5712   33.4671    7.1207 F   0  0  0  0  0  0  0  0  0  0  0  0
  -30.4413   34.7846    8.6231 F   0  0  0  0  0  0  0  0  0  0  0  0
  -30.0317   32.6911    9.1041 F   0  0  0  0  0  0  0  0  0  0  0  0
  -22.1424   33.0835    7.5677 C   0  0  0  0  0  0  0  0  0  0  0  0
  -21.4969   30.4458    6.8895 O   0  0  0  0  0  0  0  0  0  0  0  0
  -22.6654   30.8115    6.8151 C   0  0  0  0  0  0  0  0  0  0  0  0
  -23.0860   32.0618    7.1990 N   0  0  0  0  0  0  0  0  0  0  0  0
  -24.0496   32.2622    7.2221 H   0  0  0  0  0  0  0  0  0  0  0  0
  -23.7014   29.8723    6.2860 C   0  0  0  0  0  0  0  0  0  0  0  0
  -24.7464   30.4318    5.5262 C   0  0  0  0  0  0  0  0  0  0  0  0
  -25.7444   29.6028    4.9940 C   0  0  0  0  0  0  0  0  0  0  0  0
  -25.7338   28.2331    5.2115 C   0  0  0  0  0  0  0  0  0  0  0  0
  -26.6941   27.4237    4.7429 F   0  0  0  0  0  0  0  0  0  0  0  0
  -24.7066   27.6811    5.9652 C   0  0  0  0  0  0  0  0  0  0  0  0
  -24.6510   26.3333    6.2154 O   0  0  0  0  0  0  0  0  0  0  0  0
  -23.6957   28.4859    6.5003 C   0  0  0  0  0  0  0  0  0  0  0  0
  -22.7217   27.8628    7.2412 O   0  0  0  0  0  0  0  0  0  0  0  0
  -25.3124   25.7653    5.8719 H   0  0  0  0  0  0  0  0  0  0  0  0
  -22.7488   26.9343    7.3642 H   0  0  0  0  0  0  0  0  0  0  0  0
  -26.8072   30.1831    4.2032 N   0  0  0  0  0  0  0  0  0  0  0  0
  -27.4590   31.1040    4.7116 O   0  0  0  0  0  0  0  0  0  0  0  0
  -26.9996   29.7002    3.0802 O   0  0  0  0  0  0  0  0  0  0  0  0
 22 23  2  0
 23 24  1  0
 24 21  1  0
 21  1  1  0
  1  2  2  0
  3  2  1  0
  3  4  1  0
  4  5  1  0
  5 12  1  0
 12 13  1  0
 13 14  2  0
 14 15  1  0
 15 17  1  0
 17 18  1  0
 17 19  1  0
 17 20  1  0
 15 16  2  0
  5  6  1  0
  6  7  1  0
  6  8  1  0
  8  9  1  0
 23 26  1  0
 26 27  2  0
 27 28  1  0
 28 37  1  0
 37 38  2  0
 37 39  1  0
 28 29  2  0
 29 30  1  0
 29 31  1  0
 31 32  1  0
 31 33  2  0
 33 34  1  0
  8  3  1  0
 33 26  1  0
 16 12  1  0
 24 25  1  0
  7 10  1  0
  9 11  1  0
 32 35  1  0
 34 36  1  0
M  CHG 1  37   1
M  CHG 1  39  -1
M  END
> <minimizedAffinity>
-6.61339

> <CNNscore>
0.3689039648

> <CNNaffinity>
5.8951420784

> <CNN_VS>
2.1747412682

> <CNNaffinity_variance>
0.0732605457

$$$$



 39 41  0  0  0  0  0  0  0  0999 V2000
  -19.6622   31.3463   12.7153 C   0  0  0  0  0  0  0  0  0  0  0  0
  -20.6178   31.7863   13.5524 C   0  0  0  0  0  0  0  0  0  0  0  0
  -21.3274   33.1126   13.5499 C   0  0  0  0  0  0  0  0  0  0  0  0
  -21.0940   33.6961   12.2521 O   0  0  0  0  0  0  0  0  0  0  0  0
  -22.3451   33.7232   11.5300 C   0  0  0  0  0  0  0  0  0  0  0  0
  -23.3706   32.9391   12.3519 C   0  0  0  0  0  0  0  0  0  0  0  0
  -24.7005   33.4431   12.2222 O   0  0  0  0  0  0  0  0  0  0  0  0
  -22.8446   33.1324   13.7612 C   0  0  0  0  0  0  0  0  0  0  0  0
  -23.2938   34.4246   14.2184 O   0  0  0  0  0  0  0  0  0  0  0  0
  -24.7196   34.3766   12.4851 H   0  0  0  0  0  0  0  0  0  0  0  0
  -23.0190   35.1053   13.5844 H   0  0  0  0  0  0  0  0  0  0  0  0
  -22.1546   33.1657   10.1975 N   0  0  0  0  0  0  0  0  0  0  0  0
  -22.4253   33.8330    9.0346 C   0  0  0  0  0  0  0  0  0  0  0  0
  -22.1697   33.0899    7.9822 N   0  0  0  0  0  0  0  0  0  0  0  0
  -21.7002   31.8776    8.4745 C   0  0  0  0  0  0  0  0  0  0  0  0
  -21.6931   31.9232    9.8595 C   0  0  0  0  0  0  0  0  0  0  0  0
  -21.2927   30.7462    7.5743 C   0  0  0  0  0  0  0  0  0  0  0  0
  -20.8040   29.6878    8.2804 F   0  0  0  0  0  0  0  0  0  0  0  0
  -20.3210   31.0995    6.6917 F   0  0  0  0  0  0  0  0  0  0  0  0
  -22.3382   30.2694    6.8466 F   0  0  0  0  0  0  0  0  0  0  0  0
  -19.0225   29.9957   12.8278 C   0  0  0  0  0  0  0  0  0  0  0  0
  -17.0189   30.8813   11.0857 O   0  0  0  0  0  0  0  0  0  0  0  0
  -16.7152   30.5628   12.2307 C   0  0  0  0  0  0  0  0  0  0  0  0
  -17.6400   30.1896   13.1757 N   0  0  0  0  0  0  0  0  0  0  0  0
  -17.3517   30.0526   14.1070 H   0  0  0  0  0  0  0  0  0  0  0  0
  -15.2785   30.5728   12.6440 C   0  0  0  0  0  0  0  0  0  0  0  0
  -14.3686   31.2196   11.7860 C   0  0  0  0  0  0  0  0  0  0  0  0
  -13.0081   31.2718   12.1218 C   0  0  0  0  0  0  0  0  0  0  0  0
  -12.5307   30.6840   13.2838 C   0  0  0  0  0  0  0  0  0  0  0  0
  -11.2306   30.6902   13.6103 F   0  0  0  0  0  0  0  0  0  0  0  0
  -13.4263   30.0412   14.1278 C   0  0  0  0  0  0  0  0  0  0  0  0
  -13.0067   29.4387   15.2868 O   0  0  0  0  0  0  0  0  0  0  0  0
  -14.7891   29.9823   13.8186 C   0  0  0  0  0  0  0  0  0  0  0  0
  -15.6062   29.3202   14.7016 O   0  0  0  0  0  0  0  0  0  0  0  0
  -12.1005   29.4594   15.5241 H   0  0  0  0  0  0  0  0  0  0  0  0
  -15.2455   28.9373   15.4770 H   0  0  0  0  0  0  0  0  0  0  0  0
  -12.0816   31.9496   11.2422 N   0  0  0  0  0  0  0  0  0  0  0  0
  -12.1034   33.1868   11.2347 O   0  0  0  0  0  0  0  0  0  0  0  0
  -11.3468   31.2388   10.5449 O   0  0  0  0  0  0  0  0  0  0  0  0
 22 23  2  0
 23 24  1  0
 24 21  1  0
 21  1  1  0
  1  2  2  0
  3  2  1  0
  3  4  1  0
  4  5  1  0
  5 12  1  0
 12 13  1  0
 13 14  2  0
 14 15  1  0
 15 17  1  0
 17 18  1  0
 17 19  1  0
 17 20  1  0
 15 16  2  0
  5  6  1  0
  6  7  1  0
  6  8  1  0
  8  9  1  0
 23 26  1  0
 26 27  2  0
 27 28  1  0
 28 37  1  0
 37 38  2  0
 37 39  1  0
 28 29  2  0
 29 30  1  0
 29 31  1  0
 31 32  1  0
 31 33  2  0
 33 34  1  0
  8  3  1  0
 33 26  1  0
 16 12  1  0
 24 25  1  0
  7 10  1  0
  9 11  1  0
 32 35  1  0
 34 36  1  0
M  CHG 1  37   1
M  CHG 1  39  -1
M  END
> <minimizedAffinity>
-9.18268

> <CNNscore>
0.3263559937

> <CNNaffinity>
6.3033041954

> <CNN_VS>
2.0571210384

> <CNNaffinity_variance>
0.6362276077

$$$$



 39 41  0  0  0  0  0  0  0  0999 V2000
  -20.9828   30.8363   10.5089 C   0  0  0  0  0  0  0  0  0  0  0  0
  -20.3975   31.2773   11.6361 C   0  0  0  0  0  0  0  0  0  0  0  0
  -20.9366   32.2430   12.6557 C   0  0  0  0  0  0  0  0  0  0  0  0
  -20.7852   33.5599   12.0881 O   0  0  0  0  0  0  0  0  0  0  0  0
  -22.0986   34.0889   11.8006 C   0  0  0  0  0  0  0  0  0  0  0  0
  -23.1100   32.9624   12.0244 C   0  0  0  0  0  0  0  0  0  0  0  0
  -24.3750   33.4269   12.4972 O   0  0  0  0  0  0  0  0  0  0  0  0
  -22.4056   32.1235   13.0733 C   0  0  0  0  0  0  0  0  0  0  0  0
  -22.6391   32.7446   14.3540 O   0  0  0  0  0  0  0  0  0  0  0  0
  -24.2503   33.9198   13.3233 H   0  0  0  0  0  0  0  0  0  0  0  0
  -22.3587   33.6725   14.3193 H   0  0  0  0  0  0  0  0  0  0  0  0
  -22.1318   34.6058   10.4388 N   0  0  0  0  0  0  0  0  0  0  0  0
  -21.8229   35.8926   10.0928 C   0  0  0  0  0  0  0  0  0  0  0  0
  -21.9456   36.0862    8.7996 N   0  0  0  0  0  0  0  0  0  0  0  0
  -22.3464   34.8667    8.2662 C   0  0  0  0  0  0  0  0  0  0  0  0
  -22.4659   33.9414    9.2908 C   0  0  0  0  0  0  0  0  0  0  0  0
  -22.5957   34.6728    6.7976 C   0  0  0  0  0  0  0  0  0  0  0  0
  -22.9308   33.3842    6.5064 F   0  0  0  0  0  0  0  0  0  0  0  0
  -21.5091   34.9677    6.0359 F   0  0  0  0  0  0  0  0  0  0  0  0
  -23.6204   35.4449    6.3463 F   0  0  0  0  0  0  0  0  0  0  0  0
  -20.3335   29.8720    9.5631 C   0  0  0  0  0  0  0  0  0  0  0  0
  -21.1327   30.8413    7.0619 O   0  0  0  0  0  0  0  0  0  0  0  0
  -21.7335   29.8911    7.5527 C   0  0  0  0  0  0  0  0  0  0  0  0
  -21.3646   29.3015    8.7376 N   0  0  0  0  0  0  0  0  0  0  0  0
  -21.8136   28.4744    9.0267 H   0  0  0  0  0  0  0  0  0  0  0  0
  -22.9262   29.3279    6.8489 C   0  0  0  0  0  0  0  0  0  0  0  0
  -23.7554   30.2368    6.1640 C   0  0  0  0  0  0  0  0  0  0  0  0
  -24.8849   29.7703    5.4764 C   0  0  0  0  0  0  0  0  0  0  0  0
  -25.2155   28.4233    5.4658 C   0  0  0  0  0  0  0  0  0  0  0  0
  -26.3081   27.9566    4.8451 F   0  0  0  0  0  0  0  0  0  0  0  0
  -24.4016   27.5270    6.1454 C   0  0  0  0  0  0  0  0  0  0  0  0
  -24.6855   26.1850    6.1718 O   0  0  0  0  0  0  0  0  0  0  0  0
  -23.2654   27.9668    6.8323 C   0  0  0  0  0  0  0  0  0  0  0  0
  -22.5191   27.0174    7.4861 O   0  0  0  0  0  0  0  0  0  0  0  0
  -25.4391   25.8567    5.7221 H   0  0  0  0  0  0  0  0  0  0  0  0
  -22.7748   26.1166    7.4540 H   0  0  0  0  0  0  0  0  0  0  0  0
  -25.7242   30.7081    4.7640 N   0  0  0  0  0  0  0  0  0  0  0  0
  -26.9253   30.4310    4.6561 O   0  0  0  0  0  0  0  0  0  0  0  0
  -25.1727   31.7123    4.2960 O   0  0  0  0  0  0  0  0  0  0  0  0
 22 23  2  0
 23 24  1  0
 24 21  1  0
 21  1  1  0
  1  2  2  0
  3  2  1  0
  3  4  1  0
  4  5  1  0
  5 12  1  0
 12 13  1  0
 13 14  2  0
 14 15  1  0
 15 17  1  0
 17 18  1  0
 17 19  1  0
 17 20  1  0
 15 16  2  0
  5  6  1  0
  6  7  1  0
  6  8  1  0
  8  9  1  0
 23 26  1  0
 26 27  2  0
 27 28  1  0
 28 37  1  0
 37 38  2  0
 37 39  1  0
 28 29  2  0
 29 30  1  0
 29 31  1  0
 31 32  1  0
 31 33  2  0
 33 34  1  0
  8  3  1  0
 33 26  1  0
 16 12  1  0
 24 25  1  0
  7 10  1  0
  9 11  1  0
 32 35  1  0
 34 36  1  0
M  CHG 1  37   1
M  CHG 1  39  -1
M  END
> <minimizedAffinity>
-7.03032

> <CNNscore>
0.2869593203

> <CNNaffinity>
6.0484967232

> <CNN_VS>
1.7356724739

> <CNNaffinity_variance>
0.0224600527

$$$$



 39 41  0  0  0  0  0  0  0  0999 V2000
  -27.8986   34.4350    7.5592 C   0  0  0  0  0  0  0  0  0  0  0  0
  -28.2560   33.4303    8.3780 C   0  0  0  0  0  0  0  0  0  0  0  0
  -29.0639   33.4968    9.6452 C   0  0  0  0  0  0  0  0  0  0  0  0
  -28.2387   32.9308   10.6834 O   0  0  0  0  0  0  0  0  0  0  0  0
  -27.8644   33.9854   11.5974 C   0  0  0  0  0  0  0  0  0  0  0  0
  -28.3240   35.3113   10.9868 C   0  0  0  0  0  0  0  0  0  0  0  0
  -28.7065   36.2792   11.9647 O   0  0  0  0  0  0  0  0  0  0  0  0
  -29.5136   34.8691   10.1565 C   0  0  0  0  0  0  0  0  0  0  0  0
  -30.6438   34.7532   11.0452 O   0  0  0  0  0  0  0  0  0  0  0  0
  -29.4137   35.9155   12.5202 H   0  0  0  0  0  0  0  0  0  0  0  0
  -30.4179   34.1618   11.7802 H   0  0  0  0  0  0  0  0  0  0  0  0
  -26.4263   33.9467   11.8285 N   0  0  0  0  0  0  0  0  0  0  0  0
  -25.5221   34.7670   11.2119 C   0  0  0  0  0  0  0  0  0  0  0  0
  -24.2944   34.5085   11.6003 N   0  0  0  0  0  0  0  0  0  0  0  0
  -24.3946   33.4741   12.5234 C   0  0  0  0  0  0  0  0  0  0  0  0
  -25.7269   33.1203   12.6645 C   0  0  0  0  0  0  0  0  0  0  0  0
  -23.1938   32.8865   13.2084 C   0  0  0  0  0  0  0  0  0  0  0  0
  -23.3974   32.7361   14.5476 F   0  0  0  0  0  0  0  0  0  0  0  0
  -22.0817   33.6567   13.0739 F   0  0  0  0  0  0  0  0  0  0  0  0
  -22.8841   31.6520   12.7285 F   0  0  0  0  0  0  0  0  0  0  0  0
  -27.0785   34.2395    6.3202 C   0  0  0  0  0  0  0  0  0  0  0  0
  -24.7598   32.6777    6.1850 O   0  0  0  0  0  0  0  0  0  0  0  0
  -25.8417   32.1624    5.9232 C   0  0  0  0  0  0  0  0  0  0  0  0
  -27.0373   32.8297    6.0360 N   0  0  0  0  0  0  0  0  0  0  0  0
  -27.8804   32.3346    5.9204 H   0  0  0  0  0  0  0  0  0  0  0  0
  -25.8904   30.7424    5.4578 C   0  0  0  0  0  0  0  0  0  0  0  0
  -25.0611   29.8201    6.1243 C   0  0  0  0  0  0  0  0  0  0  0  0
  -25.0676   28.4712    5.7412 C   0  0  0  0  0  0  0  0  0  0  0  0
  -25.8694   28.0219    4.7024 C   0  0  0  0  0  0  0  0  0  0  0  0
  -25.8684   26.7450    4.2946 F   0  0  0  0  0  0  0  0  0  0  0  0
  -26.6834   28.9317    4.0410 C   0  0  0  0  0  0  0  0  0  0  0  0
  -27.4917   28.5419    3.0033 O   0  0  0  0  0  0  0  0  0  0  0  0
  -26.7002   30.2808    4.4095 C   0  0  0  0  0  0  0  0  0  0  0  0
  -27.5265   31.1165    3.6990 O   0  0  0  0  0  0  0  0  0  0  0  0
  -27.5047   27.6455    2.7307 H   0  0  0  0  0  0  0  0  0  0  0  0
  -28.0542   30.7742    3.0045 H   0  0  0  0  0  0  0  0  0  0  0  0
  -24.2232   27.5272    6.4393 N   0  0  0  0  0  0  0  0  0  0  0  0
  -23.0714   27.8866    6.7139 O   0  0  0  0  0  0  0  0  0  0  0  0
  -24.7108   26.4186    6.6935 O   0  0  0  0  0  0  0  0  0  0  0  0
 22 23  2  0
 23 24  1  0
 24 21  1  0
 21  1  1  0
  1  2  2  0
  3  2  1  0
  3  4  1  0
  4  5  1  0
  5 12  1  0
 12 13  1  0
 13 14  2  0
 14 15  1  0
 15 17  1  0
 17 18  1  0
 17 19  1  0
 17 20  1  0
 15 16  2  0
  5  6  1  0
  6  7  1  0
  6  8  1  0
  8  9  1  0
 23 26  1  0
 26 27  2  0
 27 28  1  0
 28 37  1  0
 37 38  2  0
 37 39  1  0
 28 29  2  0
 29 30  1  0
 29 31  1  0
 31 32  1  0
 31 33  2  0
 33 34  1  0
  8  3  1  0
 33 26  1  0
 16 12  1  0
 24 25  1  0
  7 10  1  0
  9 11  1  0
 32 35  1  0
 34 36  1  0
M  CHG 1  37   1
M  CHG 1  39  -1
M  END
> <minimizedAffinity>
-6.76517

> <CNNscore>
0.2405661345

> <CNNaffinity>
4.8542447090

> <CNN_VS>
1.1677669287

> <CNNaffinity_variance>
0.4484235346

$$$$
