


 23 23  0  0  0  0  0  0  0  0999 V2000
  -11.0708  -15.6166    9.6385 C   0  0  0  0  0  0  0  0  0  0  0  0
  -10.8021  -16.7869    8.8568 O   0  0  0  0  0  0  0  0  0  0  0  0
   -9.6075  -17.4972    9.2425 C   0  0  0  0  0  0  0  0  0  0  0  0
   -8.5540  -16.6183    9.9290 C   0  0  0  0  0  0  0  0  0  0  0  0
   -7.2543  -17.2067    9.7904 O   0  0  0  0  0  0  0  0  0  0  0  0
   -8.5562  -15.2255    9.2885 C   0  0  0  0  0  0  0  0  0  0  0  0
   -9.9495  -14.5605    9.4039 C   0  0  0  0  0  0  0  0  0  0  0  0
   -7.0328  -17.2834    8.8492 H   0  0  0  0  0  0  0  0  0  0  0  0
  -10.2196  -13.7552    8.1888 N   0  0  0  0  0  0  0  0  0  0  0  0
   -9.9259  -12.4025    8.1935 C   0  0  0  0  0  0  0  0  0  0  0  0
   -9.4268  -11.8819    9.1907 O   0  0  0  0  0  0  0  0  0  0  0  0
  -10.2327  -11.7252    7.0208 N   0  0  0  0  0  0  0  0  0  0  0  0
  -10.6819  -12.3296    5.7752 C   0  0  0  0  0  0  0  0  0  0  0  0
  -10.6037  -14.1780    7.3870 H   0  0  0  0  0  0  0  0  0  0  0  0
  -10.0955  -10.2327    7.0778 N   0  0  0  0  0  0  0  0  0  0  0  0
   -8.9204   -9.8527    7.1166 O   0  0  0  0  0  0  0  0  0  0  0  0
   -9.9865  -18.7112   10.1011 C   0  0  0  0  0  0  0  0  0  0  0  0
   -9.6643  -19.9152    9.3994 O   0  0  0  0  0  0  0  0  0  0  0  0
  -10.1581  -19.9452    8.5650 H   0  0  0  0  0  0  0  0  0  0  0  0
  -12.5698  -16.1085   11.4075 C   0  0  0  0  0  0  0  0  0  0  0  0
  -11.2090  -15.9636   11.0144 O   0  0  0  0  0  0  0  0  0  0  0  0
   -7.5186  -14.4631    9.9441 O   0  0  0  0  0  0  0  0  0  0  0  0
   -6.5638  -13.9090    9.0469 C   0  0  0  0  0  0  0  0  0  0  0  0
 20 21  1  0
  1 21  1  0
  1  2  1  0
  2  3  1  0
  3 17  1  0
 17 18  1  0
  3  4  1  0
  4  5  1  0
  4  6  1  0
  6 22  1  0
 22 23  1  0
  6  7  1  0
  7  9  1  0
  9 10  1  0
 10 11  2  0
 10 12  1  0
 12 13  1  0
 12 15  1  0
 15 16  2  0
  7  1  1  0
 18 19  1  0
  5  8  1  0
  9 14  1  0
M  END
> <minimizedAffinity>
-5.79021

> <CNNscore>
0.6733129025

> <CNNaffinity>
4.0527019501

> <CNN_VS>
2.7287364006

> <CNNaffinity_variance>
0.8227505684

$$$$



 23 23  0  0  0  0  0  0  0  0999 V2000
   -9.8500  -12.9910    8.3476 C   0  0  0  0  0  0  0  0  0  0  0  0
   -9.6865  -12.5089    9.6868 O   0  0  0  0  0  0  0  0  0  0  0  0
   -8.4618  -11.7802    9.9103 C   0  0  0  0  0  0  0  0  0  0  0  0
   -7.3264  -12.1606    8.9512 C   0  0  0  0  0  0  0  0  0  0  0  0
   -6.0579  -11.8412    9.5371 O   0  0  0  0  0  0  0  0  0  0  0  0
   -7.3901  -13.6637    8.6565 C   0  0  0  0  0  0  0  0  0  0  0  0
   -8.7536  -14.0532    8.0351 C   0  0  0  0  0  0  0  0  0  0  0  0
   -5.9492  -12.3375   10.3634 H   0  0  0  0  0  0  0  0  0  0  0  0
   -9.1565  -15.3954    8.5189 N   0  0  0  0  0  0  0  0  0  0  0  0
   -8.8579  -15.7647    9.8190 C   0  0  0  0  0  0  0  0  0  0  0  0
   -8.2822  -14.9765   10.5686 O   0  0  0  0  0  0  0  0  0  0  0  0
   -9.2534  -17.0467   10.1768 N   0  0  0  0  0  0  0  0  0  0  0  0
  -10.0640  -17.9488    9.3721 C   0  0  0  0  0  0  0  0  0  0  0  0
   -9.6315  -16.0175    7.9217 H   0  0  0  0  0  0  0  0  0  0  0  0
   -8.7720  -17.5254   11.5143 N   0  0  0  0  0  0  0  0  0  0  0  0
   -9.3025  -18.5820   11.8734 O   0  0  0  0  0  0  0  0  0  0  0  0
   -8.7494  -10.2731    9.8864 C   0  0  0  0  0  0  0  0  0  0  0  0
  -10.1596  -10.0546    9.7889 O   0  0  0  0  0  0  0  0  0  0  0  0
  -10.4937  -10.4584    8.9727 H   0  0  0  0  0  0  0  0  0  0  0  0
  -10.6009  -12.1622    6.2578 C   0  0  0  0  0  0  0  0  0  0  0  0
   -9.8290  -11.9035    7.4259 O   0  0  0  0  0  0  0  0  0  0  0  0
   -6.2753  -13.9663    7.7886 O   0  0  0  0  0  0  0  0  0  0  0  0
   -5.5103  -15.0884    8.2120 C   0  0  0  0  0  0  0  0  0  0  0  0
 20 21  1  0
  1 21  1  0
  1  2  1  0
  2  3  1  0
  3 17  1  0
 17 18  1  0
  3  4  1  0
  4  5  1  0
  4  6  1  0
  6 22  1  0
 22 23  1  0
  6  7  1  0
  7  9  1  0
  9 10  1  0
 10 11  2  0
 10 12  1  0
 12 13  1  0
 12 15  1  0
 15 16  2  0
  7  1  1  0
 18 19  1  0
  5  8  1  0
  9 14  1  0
M  END
> <minimizedAffinity>
-6.46983

> <CNNscore>
0.5393599868

> <CNNaffinity>
4.1634745598

> <CNN_VS>
2.2456116676

> <CNNaffinity_variance>
0.3716840446

$$$$



 23 23  0  0  0  0  0  0  0  0999 V2000
   -5.4462  -10.8354   10.3527 C   0  0  0  0  0  0  0  0  0  0  0  0
   -6.1598  -12.0777   10.3648 O   0  0  0  0  0  0  0  0  0  0  0  0
   -7.5810  -11.9483   10.1549 C   0  0  0  0  0  0  0  0  0  0  0  0
   -8.1505  -10.5851   10.5684 C   0  0  0  0  0  0  0  0  0  0  0  0
   -9.5514  -10.7002   10.8488 O   0  0  0  0  0  0  0  0  0  0  0  0
   -7.4177  -10.0844   11.8183 C   0  0  0  0  0  0  0  0  0  0  0  0
   -5.8961   -9.9604   11.5609 C   0  0  0  0  0  0  0  0  0  0  0  0
   -9.6851  -11.3287   11.5755 H   0  0  0  0  0  0  0  0  0  0  0  0
   -5.1515  -10.3237   12.7904 N   0  0  0  0  0  0  0  0  0  0  0  0
   -3.9627   -9.6758   13.0787 C   0  0  0  0  0  0  0  0  0  0  0  0
   -3.5424   -8.7938   12.3306 O   0  0  0  0  0  0  0  0  0  0  0  0
   -3.3243  -10.0967   14.2378 N   0  0  0  0  0  0  0  0  0  0  0  0
   -3.8603  -11.0256   15.2218 C   0  0  0  0  0  0  0  0  0  0  0  0
   -5.4989  -11.0183   13.3954 H   0  0  0  0  0  0  0  0  0  0  0  0
   -1.9500   -9.5390   14.4613 N   0  0  0  0  0  0  0  0  0  0  0  0
   -1.6252   -9.5069   15.6531 O   0  0  0  0  0  0  0  0  0  0  0  0
   -7.9180  -12.2903    8.6974 C   0  0  0  0  0  0  0  0  0  0  0  0
   -8.1807  -11.0870    7.9701 O   0  0  0  0  0  0  0  0  0  0  0  0
   -8.9312  -10.6230    8.3731 H   0  0  0  0  0  0  0  0  0  0  0  0
   -4.5720  -10.4248    8.1881 C   0  0  0  0  0  0  0  0  0  0  0  0
   -5.6321  -10.1721    9.1044 O   0  0  0  0  0  0  0  0  0  0  0  0
   -8.0258   -8.8252   12.1821 O   0  0  0  0  0  0  0  0  0  0  0  0
   -7.3893   -7.6943   11.5995 C   0  0  0  0  0  0  0  0  0  0  0  0
 20 21  1  0
  1 21  1  0
  1  2  1  0
  2  3  1  0
  3 17  1  0
 17 18  1  0
  3  4  1  0
  4  5  1  0
  4  6  1  0
  6 22  1  0
 22 23  1  0
  6  7  1  0
  7  9  1  0
  9 10  1  0
 10 11  2  0
 10 12  1  0
 12 13  1  0
 12 15  1  0
 15 16  2  0
  7  1  1  0
 18 19  1  0
  5  8  1  0
  9 14  1  0
M  END
> <minimizedAffinity>
-5.98685

> <CNNscore>
0.4442372322

> <CNNaffinity>
3.6688544750

> <CNN_VS>
1.6298418045

> <CNNaffinity_variance>
0.8417761922

$$$$



 23 23  0  0  0  0  0  0  0  0999 V2000
   -8.6636  -10.5662   11.0785 C   0  0  0  0  0  0  0  0  0  0  0  0
   -7.3428  -11.0562   11.3395 O   0  0  0  0  0  0  0  0  0  0  0  0
   -6.3795  -10.7427   10.3127 C   0  0  0  0  0  0  0  0  0  0  0  0
   -6.9960  -10.5272    8.9245 C   0  0  0  0  0  0  0  0  0  0  0  0
   -6.0142  -10.7617    7.9068 O   0  0  0  0  0  0  0  0  0  0  0  0
   -8.1717  -11.4922    8.7335 C   0  0  0  0  0  0  0  0  0  0  0  0
   -9.2499  -11.2810    9.8243 C   0  0  0  0  0  0  0  0  0  0  0  0
   -5.6956  -11.6757    7.9694 H   0  0  0  0  0  0  0  0  0  0  0  0
   -9.8546  -12.5852   10.1864 N   0  0  0  0  0  0  0  0  0  0  0  0
   -9.0600  -13.7184   10.2055 C   0  0  0  0  0  0  0  0  0  0  0  0
   -7.8602  -13.6363    9.9443 O   0  0  0  0  0  0  0  0  0  0  0  0
   -9.7163  -14.8972   10.5338 N   0  0  0  0  0  0  0  0  0  0  0  0
  -11.0930  -15.0119   10.9923 C   0  0  0  0  0  0  0  0  0  0  0  0
  -10.8114  -12.6447   10.4108 H   0  0  0  0  0  0  0  0  0  0  0  0
   -8.9127  -16.1537   10.3756 N   0  0  0  0  0  0  0  0  0  0  0  0
   -8.8749  -16.8403   11.4023 O   0  0  0  0  0  0  0  0  0  0  0  0
   -5.5310   -9.5425   10.7538 C   0  0  0  0  0  0  0  0  0  0  0  0
   -4.3532   -9.4642    9.9461 O   0  0  0  0  0  0  0  0  0  0  0  0
   -3.8360  -10.2784   10.0488 H   0  0  0  0  0  0  0  0  0  0  0  0
   -8.4558   -8.4748   12.1745 C   0  0  0  0  0  0  0  0  0  0  0  0
   -8.6438   -9.1479   10.9340 O   0  0  0  0  0  0  0  0  0  0  0  0
   -8.6789  -11.2727    7.3985 O   0  0  0  0  0  0  0  0  0  0  0  0
   -9.8253  -12.0556    7.0874 C   0  0  0  0  0  0  0  0  0  0  0  0
 20 21  1  0
  1 21  1  0
  1  2  1  0
  2  3  1  0
  3 17  1  0
 17 18  1  0
  3  4  1  0
  4  5  1  0
  4  6  1  0
  6 22  1  0
 22 23  1  0
  6  7  1  0
  7  9  1  0
  9 10  1  0
 10 11  2  0
 10 12  1  0
 12 13  1  0
 12 15  1  0
 15 16  2  0
  7  1  1  0
 18 19  1  0
  5  8  1  0
  9 14  1  0
M  END
> <minimizedAffinity>
-6.16329

> <CNNscore>
0.3987907171

> <CNNaffinity>
4.3057079315

> <CNN_VS>
1.7170763016

> <CNNaffinity_variance>
0.2968882322

$$$$



 23 23  0  0  0  0  0  0  0  0999 V2000
   -1.6606  -10.5726   13.1928 C   0  0  0  0  0  0  0  0  0  0  0  0
   -1.5827   -9.2680   13.7800 O   0  0  0  0  0  0  0  0  0  0  0  0
   -1.3198   -9.2698   15.1982 C   0  0  0  0  0  0  0  0  0  0  0  0
   -1.7745  -10.5479   15.9147 C   0  0  0  0  0  0  0  0  0  0  0  0
   -1.9900  -10.2831   17.3068 O   0  0  0  0  0  0  0  0  0  0  0  0
   -3.0768  -11.0513   15.2818 C   0  0  0  0  0  0  0  0  0  0  0  0
   -2.8898  -11.3355   13.7715 C   0  0  0  0  0  0  0  0  0  0  0  0
   -2.6791   -9.6074   17.4045 H   0  0  0  0  0  0  0  0  0  0  0  0
   -4.1305  -10.9823   13.0406 N   0  0  0  0  0  0  0  0  0  0  0  0
   -4.2567   -9.7180   12.4915 C   0  0  0  0  0  0  0  0  0  0  0  0
   -3.3379   -8.9056   12.5933 O   0  0  0  0  0  0  0  0  0  0  0  0
   -5.4605   -9.4698   11.8455 N   0  0  0  0  0  0  0  0  0  0  0  0
   -6.5049  -10.4469   11.5754 C   0  0  0  0  0  0  0  0  0  0  0  0
   -4.8569  -11.6402   12.9469 H   0  0  0  0  0  0  0  0  0  0  0  0
   -5.6846   -8.0515   11.4122 N   0  0  0  0  0  0  0  0  0  0  0  0
   -6.8289   -7.8447   10.9944 O   0  0  0  0  0  0  0  0  0  0  0  0
    0.1654   -8.9735   15.4456 C   0  0  0  0  0  0  0  0  0  0  0  0
    0.3675   -7.5593   15.5174 O   0  0  0  0  0  0  0  0  0  0  0  0
    0.0932   -7.1506   14.6815 H   0  0  0  0  0  0  0  0  0  0  0  0
    0.4790  -11.1050   12.3229 C   0  0  0  0  0  0  0  0  0  0  0  0
   -0.4392  -11.2790   13.3971 O   0  0  0  0  0  0  0  0  0  0  0  0
   -3.4753  -12.2248   16.0246 O   0  0  0  0  0  0  0  0  0  0  0  0
   -2.7583  -13.3994   15.6641 C   0  0  0  0  0  0  0  0  0  0  0  0
 20 21  1  0
  1 21  1  0
  1  2  1  0
  2  3  1  0
  3 17  1  0
 17 18  1  0
  3  4  1  0
  4  5  1  0
  4  6  1  0
  6 22  1  0
 22 23  1  0
  6  7  1  0
  7  9  1  0
  9 10  1  0
 10 11  2  0
 10 12  1  0
 12 13  1  0
 12 15  1  0
 15 16  2  0
  7  1  1  0
 18 19  1  0
  5  8  1  0
  9 14  1  0
M  END
> <minimizedAffinity>
-5.21615

> <CNNscore>
0.3571186662

> <CNNaffinity>
3.5875537395

> <CNN_VS>
1.2811824083

> <CNNaffinity_variance>
0.5232896209

$$$$



 23 23  0  0  0  0  0  0  0  0999 V2000
   -3.3499   -9.9649   14.1913 C   0  0  0  0  0  0  0  0  0  0  0  0
   -3.6768  -10.8480   15.2711 O   0  0  0  0  0  0  0  0  0  0  0  0
   -2.8297  -12.0117   15.3639 C   0  0  0  0  0  0  0  0  0  0  0  0
   -2.1907  -12.4252   14.0318 C   0  0  0  0  0  0  0  0  0  0  0  0
   -1.8396  -13.8145   14.0633 O   0  0  0  0  0  0  0  0  0  0  0  0
   -3.1830  -12.1738   12.8906 C   0  0  0  0  0  0  0  0  0  0  0  0
   -3.5998  -10.6840   12.8318 C   0  0  0  0  0  0  0  0  0  0  0  0
   -2.6379  -14.3467   14.2061 H   0  0  0  0  0  0  0  0  0  0  0  0
   -5.0219  -10.5801   12.4258 N   0  0  0  0  0  0  0  0  0  0  0  0
   -5.4498   -9.4578   11.7377 C   0  0  0  0  0  0  0  0  0  0  0  0
   -4.6505   -8.5674   11.4499 O   0  0  0  0  0  0  0  0  0  0  0  0
   -6.8011   -9.4374   11.4188 N   0  0  0  0  0  0  0  0  0  0  0  0
   -7.7424  -10.5312   11.6083 C   0  0  0  0  0  0  0  0  0  0  0  0
   -5.6553  -11.3017   12.6433 H   0  0  0  0  0  0  0  0  0  0  0  0
   -7.3131   -8.1506   10.8429 N   0  0  0  0  0  0  0  0  0  0  0  0
   -8.2007   -7.6299   11.5268 O   0  0  0  0  0  0  0  0  0  0  0  0
   -1.7774  -11.7948   16.4596 C   0  0  0  0  0  0  0  0  0  0  0  0
   -2.1201  -10.6416   17.2331 O   0  0  0  0  0  0  0  0  0  0  0  0
   -2.1487   -9.8622   16.6563 H   0  0  0  0  0  0  0  0  0  0  0  0
   -1.4949   -8.9642   13.1069 C   0  0  0  0  0  0  0  0  0  0  0  0
   -2.0073   -9.5032   14.3211 O   0  0  0  0  0  0  0  0  0  0  0  0
   -2.5432  -12.6221   11.6752 O   0  0  0  0  0  0  0  0  0  0  0  0
   -3.3664  -13.4593   10.8720 C   0  0  0  0  0  0  0  0  0  0  0  0
 20 21  1  0
  1 21  1  0
  1  2  1  0
  2  3  1  0
  3 17  1  0
 17 18  1  0
  3  4  1  0
  4  5  1  0
  4  6  1  0
  6 22  1  0
 22 23  1  0
  6  7  1  0
  7  9  1  0
  9 10  1  0
 10 11  2  0
 10 12  1  0
 12 13  1  0
 12 15  1  0
 15 16  2  0
  7  1  1  0
 18 19  1  0
  5  8  1  0
  9 14  1  0
M  END
> <minimizedAffinity>
-5.14686

> <CNNscore>
0.2971740961

> <CNNaffinity>
3.1852939129

> <CNN_VS>
0.9465868473

> <CNNaffinity_variance>
0.9611351490

$$$$



 23 23  0  0  0  0  0  0  0  0999 V2000
   -8.6321  -13.7260    7.7333 C   0  0  0  0  0  0  0  0  0  0  0  0
   -8.5350  -15.0438    8.2869 O   0  0  0  0  0  0  0  0  0  0  0  0
   -9.3141  -15.2439    9.4842 C   0  0  0  0  0  0  0  0  0  0  0  0
   -9.5802  -13.9576   10.2769 C   0  0  0  0  0  0  0  0  0  0  0  0
   -9.8521  -14.2709   11.6489 O   0  0  0  0  0  0  0  0  0  0  0  0
   -8.3516  -13.0445   10.1941 C   0  0  0  0  0  0  0  0  0  0  0  0
   -8.0148  -12.6941    8.7242 C   0  0  0  0  0  0  0  0  0  0  0  0
   -9.0861  -14.7238   12.0350 H   0  0  0  0  0  0  0  0  0  0  0  0
   -6.5443  -12.6064    8.5572 N   0  0  0  0  0  0  0  0  0  0  0  0
   -5.9245  -11.3722    8.6489 C   0  0  0  0  0  0  0  0  0  0  0  0
   -6.5881  -10.3636    8.8872 O   0  0  0  0  0  0  0  0  0  0  0  0
   -4.5493  -11.3837    8.4569 N   0  0  0  0  0  0  0  0  0  0  0  0
   -3.7132  -12.5676    8.3225 C   0  0  0  0  0  0  0  0  0  0  0  0
   -6.0142  -13.4175    8.3829 H   0  0  0  0  0  0  0  0  0  0  0  0
   -3.8947  -10.0372    8.3672 N   0  0  0  0  0  0  0  0  0  0  0  0
   -2.8258   -9.9730    8.9836 O   0  0  0  0  0  0  0  0  0  0  0  0
  -10.6149  -15.9786    9.1335 C   0  0  0  0  0  0  0  0  0  0  0  0
  -10.3168  -17.3196    8.7354 O   0  0  0  0  0  0  0  0  0  0  0  0
   -9.7367  -17.3048    7.9581 H   0  0  0  0  0  0  0  0  0  0  0  0
  -10.1406  -12.1264    6.8481 C   0  0  0  0  0  0  0  0  0  0  0  0
   -9.9881  -13.4247    7.4124 O   0  0  0  0  0  0  0  0  0  0  0  0
   -8.6454  -11.8765   10.9923 O   0  0  0  0  0  0  0  0  0  0  0  0
   -9.5231  -10.9558   10.3555 C   0  0  0  0  0  0  0  0  0  0  0  0
 20 21  1  0
  1 21  1  0
  1  2  1  0
  2  3  1  0
  3 17  1  0
 17 18  1  0
  3  4  1  0
  4  5  1  0
  4  6  1  0
  6 22  1  0
 22 23  1  0
  6  7  1  0
  7  9  1  0
  9 10  1  0
 10 11  2  0
 10 12  1  0
 12 13  1  0
 12 15  1  0
 15 16  2  0
  7  1  1  0
 18 19  1  0
  5  8  1  0
  9 14  1  0
M  END
> <minimizedAffinity>
-5.91489

> <CNNscore>
0.2874847651

> <CNNaffinity>
4.0857834816

> <CNN_VS>
1.1746004820

> <CNNaffinity_variance>
0.6273726225

$$$$



 23 23  0  0  0  0  0  0  0  0999 V2000
   -9.4433  -12.4324    9.6546 C   0  0  0  0  0  0  0  0  0  0  0  0
   -9.5640  -12.0993    8.2664 O   0  0  0  0  0  0  0  0  0  0  0  0
   -9.0800  -13.1178    7.3669 C   0  0  0  0  0  0  0  0  0  0  0  0
   -8.0100  -14.0317    7.9781 C   0  0  0  0  0  0  0  0  0  0  0  0
   -7.2137  -14.6206    6.9420 O   0  0  0  0  0  0  0  0  0  0  0  0
   -7.1112  -13.2115    8.9107 C   0  0  0  0  0  0  0  0  0  0  0  0
   -7.9372  -12.5450   10.0378 C   0  0  0  0  0  0  0  0  0  0  0  0
   -6.7745  -13.9204    6.4343 H   0  0  0  0  0  0  0  0  0  0  0  0
   -7.3654  -11.2143   10.3544 N   0  0  0  0  0  0  0  0  0  0  0  0
   -8.1217  -10.3059   11.0747 C   0  0  0  0  0  0  0  0  0  0  0  0
   -9.2485  -10.6113   11.4641 O   0  0  0  0  0  0  0  0  0  0  0  0
   -7.5139   -9.0788   11.3046 N   0  0  0  0  0  0  0  0  0  0  0  0
   -6.1347   -8.7343   10.9922 C   0  0  0  0  0  0  0  0  0  0  0  0
   -6.4574  -10.9791   10.0554 H   0  0  0  0  0  0  0  0  0  0  0  0
   -8.3886   -8.0253   11.9168 N   0  0  0  0  0  0  0  0  0  0  0  0
   -7.7971   -6.9602   12.1227 O   0  0  0  0  0  0  0  0  0  0  0  0
  -10.2657  -13.9180    6.8115 C   0  0  0  0  0  0  0  0  0  0  0  0
  -10.3180  -15.2001    7.4434 O   0  0  0  0  0  0  0  0  0  0  0  0
   -9.4946  -15.6815    7.2668 H   0  0  0  0  0  0  0  0  0  0  0  0
   -9.6238  -14.3438   11.0446 C   0  0  0  0  0  0  0  0  0  0  0  0
  -10.1656  -13.6282    9.9393 O   0  0  0  0  0  0  0  0  0  0  0  0
   -6.1025  -14.1133    9.4175 O   0  0  0  0  0  0  0  0  0  0  0  0
   -4.7827  -13.5862    9.3564 C   0  0  0  0  0  0  0  0  0  0  0  0
 20 21  1  0
  1 21  1  0
  1  2  1  0
  2  3  1  0
  3 17  1  0
 17 18  1  0
  3  4  1  0
  4  5  1  0
  4  6  1  0
  6 22  1  0
 22 23  1  0
  6  7  1  0
  7  9  1  0
  9 10  1  0
 10 11  2  0
 10 12  1  0
 12 13  1  0
 12 15  1  0
 15 16  2  0
  7  1  1  0
 18 19  1  0
  5  8  1  0
  9 14  1  0
M  END
> <minimizedAffinity>
-6.19031

> <CNNscore>
0.2845512629

> <CNNaffinity>
4.0041794777

> <CNN_VS>
1.1393942833

> <CNNaffinity_variance>
0.4135549068

$$$$



 23 23  0  0  0  0  0  0  0  0999 V2000
    0.6226   -6.5620    8.1953 C   0  0  0  0  0  0  0  0  0  0  0  0
    0.3718   -7.8835    7.7018 O   0  0  0  0  0  0  0  0  0  0  0  0
    1.5470   -8.5742    7.2301 C   0  0  0  0  0  0  0  0  0  0  0  0
    2.6714   -7.6421    6.7607 C   0  0  0  0  0  0  0  0  0  0  0  0
    3.5301   -8.3290    5.8412 O   0  0  0  0  0  0  0  0  0  0  0  0
    2.0625   -6.4148    6.0730 C   0  0  0  0  0  0  0  0  0  0  0  0
    1.1146   -5.6518    7.0303 C   0  0  0  0  0  0  0  0  0  0  0  0
    3.0160   -8.6128    5.0692 H   0  0  0  0  0  0  0  0  0  0  0  0
   -0.0283   -5.0996    6.2643 N   0  0  0  0  0  0  0  0  0  0  0  0
   -0.4214   -5.7210    5.0916 C   0  0  0  0  0  0  0  0  0  0  0  0
    0.1612   -6.7330    4.7033 O   0  0  0  0  0  0  0  0  0  0  0  0
   -1.4853   -5.1213    4.4308 N   0  0  0  0  0  0  0  0  0  0  0  0
   -2.2923   -4.0183    4.9313 C   0  0  0  0  0  0  0  0  0  0  0  0
   -0.5027   -4.2993    6.5864 H   0  0  0  0  0  0  0  0  0  0  0  0
   -1.7979   -5.6709    3.0707 N   0  0  0  0  0  0  0  0  0  0  0  0
   -2.9160   -6.1923    3.0011 O   0  0  0  0  0  0  0  0  0  0  0  0
    2.0306   -9.5574    8.3045 C   0  0  0  0  0  0  0  0  0  0  0  0
    3.2613   -9.0902    8.8640 O   0  0  0  0  0  0  0  0  0  0  0  0
    3.9301   -9.0242    8.1644 H   0  0  0  0  0  0  0  0  0  0  0  0
    0.9088   -6.6861   10.5449 C   0  0  0  0  0  0  0  0  0  0  0  0
    1.5508   -6.6073    9.2765 O   0  0  0  0  0  0  0  0  0  0  0  0
    3.1662   -5.6018    5.6166 O   0  0  0  0  0  0  0  0  0  0  0  0
    3.6128   -4.6535    6.5783 C   0  0  0  0  0  0  0  0  0  0  0  0
 20 21  1  0
  1 21  1  0
  1  2  1  0
  2  3  1  0
  3 17  1  0
 17 18  1  0
  3  4  1  0
  4  5  1  0
  4  6  1  0
  6 22  1  0
 22 23  1  0
  6  7  1  0
  7  9  1  0
  9 10  1  0
 10 11  2  0
 10 12  1  0
 12 13  1  0
 12 15  1  0
 15 16  2  0
  7  1  1  0
 18 19  1  0
  5  8  1  0
  9 14  1  0
M  END
> <minimizedAffinity>
-4.20616

> <CNNscore>
0.2802491486

> <CNNaffinity>
2.9839718342

> <CNN_VS>
0.8362555504

> <CNNaffinity_variance>
0.9070962071

$$$$
