


 54 59  0  0  0  0  0  0  0  0999 V2000
   13.5351   23.3879    5.7963 C   0  0  0  0  0  0  0  0  0  0  0  0
   13.0818   24.8115    5.3518 C   0  0  0  0  0  0  0  0  0  0  0  0
   14.1092   25.3848    4.5226 O   0  0  0  0  0  0  0  0  0  0  0  0
   14.2123   24.8505    3.7197 H   0  0  0  0  0  0  0  0  0  0  0  0
   11.6958   24.8804    4.6631 C   0  0  0  0  0  0  0  0  0  0  0  0
   10.6395   24.8682    5.7891 C   0  0  0  0  0  0  0  0  0  0  0  0
   10.5308   23.9184    6.5635 O   0  0  0  0  0  0  0  0  0  0  0  0
    9.8552   25.9955    5.8456 N   0  0  0  0  0  0  0  0  0  0  0  0
   10.1091   26.7824    5.3112 H   0  0  0  0  0  0  0  0  0  0  0  0
    8.6669   26.0580    6.6686 C   0  0  0  0  0  0  0  0  0  0  0  0
    9.0010   26.6302    8.0174 C   0  0  0  0  0  0  0  0  0  0  0  0
    9.6591   26.0002    9.0641 C   0  0  0  0  0  0  0  0  0  0  0  0
    9.9100   26.7321   10.2262 C   0  0  0  0  0  0  0  0  0  0  0  0
    9.5097   28.0747   10.3248 C   0  0  0  0  0  0  0  0  0  0  0  0
    8.8509   28.7034    9.2647 C   0  0  0  0  0  0  0  0  0  0  0  0
    8.5964   27.9663    8.1197 C   0  0  0  0  0  0  0  0  0  0  0  0
    7.9416   28.4287    6.8572 C   0  0  0  0  0  0  0  0  0  0  0  0
    7.6194   27.0950    6.1504 C   0  0  0  0  0  0  0  0  0  0  0  0
    7.6478   27.2612    4.7319 O   0  0  0  0  0  0  0  0  0  0  0  0
    8.5238   27.5778    4.4609 H   0  0  0  0  0  0  0  0  0  0  0  0
   11.5113   23.7759    3.7753 O   0  0  0  0  0  0  0  0  0  0  0  0
   11.2628   24.1776    2.4284 C   0  0  0  0  0  0  0  0  0  0  0  0
    9.7757   24.3390    2.2704 C   0  0  0  0  0  0  0  0  0  0  0  0
    8.9050   23.3295    2.7054 C   0  0  0  0  0  0  0  0  0  0  0  0
    7.5248   23.4834    2.5774 C   0  0  0  0  0  0  0  0  0  0  0  0
    7.0018   24.6505    2.0228 C   0  0  0  0  0  0  0  0  0  0  0  0
    7.8571   25.6664    1.5994 C   0  0  0  0  0  0  0  0  0  0  0  0
    9.2381   25.5129    1.7240 C   0  0  0  0  0  0  0  0  0  0  0  0
   12.0686   21.5125    6.1468 C   0  0  0  0  0  0  0  0  0  0  0  0
   12.7143   22.3520    5.1951 O   0  0  0  0  0  0  0  0  0  0  0  0
   15.0193   23.0519    5.4722 C   0  0  0  0  0  0  0  0  0  0  0  0
   15.1557   21.5576    5.0596 C   0  0  0  0  0  0  0  0  0  0  0  0
   14.1964   20.8311    4.7979 O   0  0  0  0  0  0  0  0  0  0  0  0
   16.4431   21.0665    5.0926 N   0  0  0  0  0  0  0  0  0  0  0  0
   17.2060   21.6886    5.0797 H   0  0  0  0  0  0  0  0  0  0  0  0
   16.6759   19.6456    5.1461 C   0  0  0  0  0  0  0  0  0  0  0  0
   16.7960   19.0094    3.7891 C   0  0  0  0  0  0  0  0  0  0  0  0
   16.0215   19.2292    2.6611 C   0  0  0  0  0  0  0  0  0  0  0  0
   16.2927   18.4790    1.5153 C   0  0  0  0  0  0  0  0  0  0  0  0
   17.3125   17.5134    1.5153 C   0  0  0  0  0  0  0  0  0  0  0  0
   18.0759   17.2824    2.6611 C   0  0  0  0  0  0  0  0  0  0  0  0
   17.8114   18.0421    3.7873 C   0  0  0  0  0  0  0  0  0  0  0  0
   18.4726   17.9488    5.1347 C   0  0  0  0  0  0  0  0  0  0  0  0
   18.0651   19.2943    5.7616 C   0  0  0  0  0  0  0  0  0  0  0  0
   19.0620   20.2899    5.4312 O   0  0  0  0  0  0  0  0  0  0  0  0
   19.1480   20.3538    4.4672 H   0  0  0  0  0  0  0  0  0  0  0  0
   15.8552   23.3750    6.5795 O   0  0  0  0  0  0  0  0  0  0  0  0
   15.2153   23.2194    7.8425 C   0  0  0  0  0  0  0  0  0  0  0  0
   15.9406   22.1470    8.6101 C   0  0  0  0  0  0  0  0  0  0  0  0
   15.2538   21.3418    9.5300 C   0  0  0  0  0  0  0  0  0  0  0  0
   15.9244   20.3326   10.2234 C   0  0  0  0  0  0  0  0  0  0  0  0
   17.2829   20.1142    9.9975 C   0  0  0  0  0  0  0  0  0  0  0  0
   17.9732   20.9033    9.0783 C   0  0  0  0  0  0  0  0  0  0  0  0
   17.3041   21.9125    8.3849 C   0  0  0  0  0  0  0  0  0  0  0  0
 29 30  1  0
  1 30  1  0
  1  2  1  0
  2  3  1  0
  2  5  1  0
  5 21  1  0
 21 22  1  0
 22 23  1  0
 23 24  2  0
 24 25  1  0
 25 26  2  0
 26 27  1  0
 27 28  2  0
  5  6  1  0
  6  7  2  0
  6  8  1  0
 10  8  1  0
 10 11  1  0
 11 12  2  0
 12 13  1  0
 13 14  2  0
 14 15  1  0
 15 16  2  0
 16 17  1  0
 17 18  1  0
 18 19  1  0
  1 31  1  0
 31 47  1  0
 47 48  1  0
 48 49  1  0
 49 50  2  0
 50 51  1  0
 51 52  2  0
 52 53  1  0
 53 54  2  0
 31 32  1  0
 32 33  2  0
 32 34  1  0
 36 34  1  0
 36 37  1  0
 37 38  2  0
 38 39  1  0
 39 40  2  0
 40 41  1  0
 41 42  2  0
 42 43  1  0
 43 44  1  0
 44 45  1  0
 28 23  1  0
 18 10  1  0
 54 49  1  0
 44 36  1  0
 16 11  1  0
 42 37  1  0
  3  4  1  0
  8  9  1  0
 19 20  1  0
 34 35  1  0
 45 46  1  0
M  END
> <minimizedAffinity>
-12.65596

> <CNNscore>
0.9724349976

> <CNNaffinity>
10.3302669525

> <CNN_VS>
10.0455131531

> <CNNaffinity_variance>
0.4571936429

$$$$



 54 59  0  0  0  0  0  0  0  0999 V2000
   13.0998   23.4016    5.1016 C   0  0  0  0  0  0  0  0  0  0  0  0
   14.6266   23.4381    4.7897 C   0  0  0  0  0  0  0  0  0  0  0  0
   15.0453   24.8120    4.6954 O   0  0  0  0  0  0  0  0  0  0  0  0
   14.9147   25.2493    5.5513 H   0  0  0  0  0  0  0  0  0  0  0  0
   15.5223   22.6404    5.7702 C   0  0  0  0  0  0  0  0  0  0  0  0
   15.4147   21.1554    5.3617 C   0  0  0  0  0  0  0  0  0  0  0  0
   14.3360   20.6423    5.0668 O   0  0  0  0  0  0  0  0  0  0  0  0
   16.6115   20.4795    5.3535 N   0  0  0  0  0  0  0  0  0  0  0  0
   17.4499   20.9898    5.4304 H   0  0  0  0  0  0  0  0  0  0  0  0
   16.6735   19.0389    5.2349 C   0  0  0  0  0  0  0  0  0  0  0  0
   16.4320   18.6260    3.8103 C   0  0  0  0  0  0  0  0  0  0  0  0
   15.2229   18.6021    3.1298 C   0  0  0  0  0  0  0  0  0  0  0  0
   15.2255   18.2242    1.7858 C   0  0  0  0  0  0  0  0  0  0  0  0
   16.4266   17.8842    1.1421 C   0  0  0  0  0  0  0  0  0  0  0  0
   17.6408   17.9145    1.8331 C   0  0  0  0  0  0  0  0  0  0  0  0
   17.6274   18.2801    3.1692 C   0  0  0  0  0  0  0  0  0  0  0  0
   18.7937   18.4152    4.0956 C   0  0  0  0  0  0  0  0  0  0  0  0
   18.1074   18.4677    5.4771 C   0  0  0  0  0  0  0  0  0  0  0  0
   18.8781   19.2525    6.3887 O   0  0  0  0  0  0  0  0  0  0  0  0
   18.9822   20.1496    6.0350 H   0  0  0  0  0  0  0  0  0  0  0  0
   15.0976   22.8324    7.1211 O   0  0  0  0  0  0  0  0  0  0  0  0
   16.1576   23.2357    7.9877 C   0  0  0  0  0  0  0  0  0  0  0  0
   16.5656   22.0338    8.7948 C   0  0  0  0  0  0  0  0  0  0  0  0
   15.6100   21.3198    9.5320 C   0  0  0  0  0  0  0  0  0  0  0  0
   15.9811   20.1941   10.2668 C   0  0  0  0  0  0  0  0  0  0  0  0
   17.3078   19.7660   10.2643 C   0  0  0  0  0  0  0  0  0  0  0  0
   18.2638   20.4598    9.5244 C   0  0  0  0  0  0  0  0  0  0  0  0
   17.8948   21.5879    8.7911 C   0  0  0  0  0  0  0  0  0  0  0  0
   12.1798   21.7416    6.5811 C   0  0  0  0  0  0  0  0  0  0  0  0
   12.8423   22.9972    6.4723 O   0  0  0  0  0  0  0  0  0  0  0  0
   12.3601   24.7503    4.8679 C   0  0  0  0  0  0  0  0  0  0  0  0
   11.1012   24.8392    5.7783 C   0  0  0  0  0  0  0  0  0  0  0  0
   10.6290   23.8782    6.3866 O   0  0  0  0  0  0  0  0  0  0  0  0
   10.4847   26.0719    5.7894 N   0  0  0  0  0  0  0  0  0  0  0  0
   10.9791   26.8704    5.4942 H   0  0  0  0  0  0  0  0  0  0  0  0
    9.1190   26.1956    6.2316 C   0  0  0  0  0  0  0  0  0  0  0  0
    8.9691   27.0157    7.4828 C   0  0  0  0  0  0  0  0  0  0  0  0
    9.7434   26.9868    8.6318 C   0  0  0  0  0  0  0  0  0  0  0  0
    9.3809   27.8153    9.6954 C   0  0  0  0  0  0  0  0  0  0  0  0
    8.2486   28.6415    9.6071 C   0  0  0  0  0  0  0  0  0  0  0  0
    7.4610   28.6511    8.4545 C   0  0  0  0  0  0  0  0  0  0  0  0
    7.8370   27.8391    7.3987 C   0  0  0  0  0  0  0  0  0  0  0  0
    7.1320   27.6575    6.0829 C   0  0  0  0  0  0  0  0  0  0  0  0
    8.2438   27.0148    5.2341 C   0  0  0  0  0  0  0  0  0  0  0  0
    9.0081   28.0602    4.5882 O   0  0  0  0  0  0  0  0  0  0  0  0
    9.3696   28.6588    5.2604 H   0  0  0  0  0  0  0  0  0  0  0  0
   12.0308   24.9042    3.4906 O   0  0  0  0  0  0  0  0  0  0  0  0
   11.3792   23.7688    2.9290 C   0  0  0  0  0  0  0  0  0  0  0  0
    9.9666   24.1577    2.5846 C   0  0  0  0  0  0  0  0  0  0  0  0
    8.9036   23.2806    2.8432 C   0  0  0  0  0  0  0  0  0  0  0  0
    7.5920   23.6535    2.5440 C   0  0  0  0  0  0  0  0  0  0  0  0
    7.3309   24.9073    1.9926 C   0  0  0  0  0  0  0  0  0  0  0  0
    8.3798   25.7905    1.7399 C   0  0  0  0  0  0  0  0  0  0  0  0
    9.6913   25.4188    2.0382 C   0  0  0  0  0  0  0  0  0  0  0  0
 29 30  1  0
  1 30  1  0
  1  2  1  0
  2  3  1  0
  2  5  1  0
  5 21  1  0
 21 22  1  0
 22 23  1  0
 23 24  2  0
 24 25  1  0
 25 26  2  0
 26 27  1  0
 27 28  2  0
  5  6  1  0
  6  7  2  0
  6  8  1  0
 10  8  1  0
 10 11  1  0
 11 12  2  0
 12 13  1  0
 13 14  2  0
 14 15  1  0
 15 16  2  0
 16 17  1  0
 17 18  1  0
 18 19  1  0
  1 31  1  0
 31 47  1  0
 47 48  1  0
 48 49  1  0
 49 50  2  0
 50 51  1  0
 51 52  2  0
 52 53  1  0
 53 54  2  0
 31 32  1  0
 32 33  2  0
 32 34  1  0
 36 34  1  0
 36 37  1  0
 37 38  2  0
 38 39  1  0
 39 40  2  0
 40 41  1  0
 41 42  2  0
 42 43  1  0
 43 44  1  0
 44 45  1  0
 28 23  1  0
 18 10  1  0
 54 49  1  0
 44 36  1  0
 16 11  1  0
 42 37  1  0
  3  4  1  0
  8  9  1  0
 19 20  1  0
 34 35  1  0
 45 46  1  0
M  END
> <minimizedAffinity>
-11.96192

> <CNNscore>
0.9575026631

> <CNNaffinity>
9.9616613388

> <CNN_VS>
9.5383176804

> <CNNaffinity_variance>
0.3618102074

$$$$



 54 59  0  0  0  0  0  0  0  0999 V2000
   13.2560   23.4999    5.1175 C   0  0  0  0  0  0  0  0  0  0  0  0
   13.6623   22.2191    4.3274 C   0  0  0  0  0  0  0  0  0  0  0  0
   14.8509   22.5038    3.5670 O   0  0  0  0  0  0  0  0  0  0  0  0
   15.5794   22.7133    4.1722 H   0  0  0  0  0  0  0  0  0  0  0  0
   13.8320   20.9388    5.1830 C   0  0  0  0  0  0  0  0  0  0  0  0
   13.9512   21.3991    6.6519 C   0  0  0  0  0  0  0  0  0  0  0  0
   13.0000   21.8969    7.2528 O   0  0  0  0  0  0  0  0  0  0  0  0
   15.1903   21.1987    7.2121 N   0  0  0  0  0  0  0  0  0  0  0  0
   15.8471   20.6423    6.7344 H   0  0  0  0  0  0  0  0  0  0  0  0
   15.5560   21.7827    8.4842 C   0  0  0  0  0  0  0  0  0  0  0  0
   16.3408   20.7948    9.3006 C   0  0  0  0  0  0  0  0  0  0  0  0
   15.8574   19.6857    9.9803 C   0  0  0  0  0  0  0  0  0  0  0  0
   16.7703   18.8665   10.6472 C   0  0  0  0  0  0  0  0  0  0  0  0
   18.1437   19.1594   10.6214 C   0  0  0  0  0  0  0  0  0  0  0  0
   18.6232   20.2760    9.9314 C   0  0  0  0  0  0  0  0  0  0  0  0
   17.7092   21.0893    9.2817 C   0  0  0  0  0  0  0  0  0  0  0  0
   17.9862   22.3078    8.4602 C   0  0  0  0  0  0  0  0  0  0  0  0
   16.5868   22.9488    8.3467 C   0  0  0  0  0  0  0  0  0  0  0  0
   16.4633   23.6655    7.1171 O   0  0  0  0  0  0  0  0  0  0  0  0
   16.6131   23.0606    6.3738 H   0  0  0  0  0  0  0  0  0  0  0  0
   14.9904   20.2054    4.7801 O   0  0  0  0  0  0  0  0  0  0  0  0
   14.7437   18.8070    4.6358 C   0  0  0  0  0  0  0  0  0  0  0  0
   15.8250   18.2444    3.7544 C   0  0  0  0  0  0  0  0  0  0  0  0
   15.8027   18.4775    2.3718 C   0  0  0  0  0  0  0  0  0  0  0  0
   16.8134   17.9730    1.5539 C   0  0  0  0  0  0  0  0  0  0  0  0
   17.8600   17.2396    2.1105 C   0  0  0  0  0  0  0  0  0  0  0  0
   17.8998   17.0131    3.4853 C   0  0  0  0  0  0  0  0  0  0  0  0
   16.8880   17.5145    4.3047 C   0  0  0  0  0  0  0  0  0  0  0  0
   15.6005   23.9121    4.7652 C   0  0  0  0  0  0  0  0  0  0  0  0
   14.3578   24.4405    5.2165 O   0  0  0  0  0  0  0  0  0  0  0  0
   12.0409   24.2679    4.5222 C   0  0  0  0  0  0  0  0  0  0  0  0
   10.9914   24.5602    5.6336 C   0  0  0  0  0  0  0  0  0  0  0  0
   10.6343   23.7307    6.4708 O   0  0  0  0  0  0  0  0  0  0  0  0
   10.4106   25.8081    5.5629 N   0  0  0  0  0  0  0  0  0  0  0  0
   10.8494   26.5252    5.0506 H   0  0  0  0  0  0  0  0  0  0  0  0
    9.1634   26.0666    6.2365 C   0  0  0  0  0  0  0  0  0  0  0  0
    9.3265   26.8298    7.5216 C   0  0  0  0  0  0  0  0  0  0  0  0
   10.2711   26.6486    8.5193 C   0  0  0  0  0  0  0  0  0  0  0  0
   10.1962   27.4550    9.6564 C   0  0  0  0  0  0  0  0  0  0  0  0
    9.1766   28.4116    9.7911 C   0  0  0  0  0  0  0  0  0  0  0  0
    8.2159   28.5754    8.7915 C   0  0  0  0  0  0  0  0  0  0  0  0
    8.3075   27.7832    7.6603 C   0  0  0  0  0  0  0  0  0  0  0  0
    7.3768   27.7566    6.4794 C   0  0  0  0  0  0  0  0  0  0  0  0
    8.2436   27.0352    5.4317 C   0  0  0  0  0  0  0  0  0  0  0  0
    9.0140   28.0174    4.6997 O   0  0  0  0  0  0  0  0  0  0  0  0
    9.5537   28.5325    5.3196 H   0  0  0  0  0  0  0  0  0  0  0  0
   11.4753   23.5387    3.4371 O   0  0  0  0  0  0  0  0  0  0  0  0
   11.2003   24.3403    2.2922 C   0  0  0  0  0  0  0  0  0  0  0  0
    9.7080   24.4945    2.1715 C   0  0  0  0  0  0  0  0  0  0  0  0
    9.1526   25.6850    1.6810 C   0  0  0  0  0  0  0  0  0  0  0  0
    7.7691   25.8164    1.5485 C   0  0  0  0  0  0  0  0  0  0  0  0
    6.9306   24.7581    1.8963 C   0  0  0  0  0  0  0  0  0  0  0  0
    7.4730   23.5667    2.3765 C   0  0  0  0  0  0  0  0  0  0  0  0
    8.8557   23.4343    2.5098 C   0  0  0  0  0  0  0  0  0  0  0  0
 29 30  1  0
  1 30  1  0
  1  2  1  0
  2  3  1  0
  2  5  1  0
  5 21  1  0
 21 22  1  0
 22 23  1  0
 23 24  2  0
 24 25  1  0
 25 26  2  0
 26 27  1  0
 27 28  2  0
  5  6  1  0
  6  7  2  0
  6  8  1  0
 10  8  1  0
 10 11  1  0
 11 12  2  0
 12 13  1  0
 13 14  2  0
 14 15  1  0
 15 16  2  0
 16 17  1  0
 17 18  1  0
 18 19  1  0
  1 31  1  0
 31 47  1  0
 47 48  1  0
 48 49  1  0
 49 50  2  0
 50 51  1  0
 51 52  2  0
 52 53  1  0
 53 54  2  0
 31 32  1  0
 32 33  2  0
 32 34  1  0
 36 34  1  0
 36 37  1  0
 37 38  2  0
 38 39  1  0
 39 40  2  0
 40 41  1  0
 41 42  2  0
 42 43  1  0
 43 44  1  0
 44 45  1  0
 28 23  1  0
 18 10  1  0
 54 49  1  0
 44 36  1  0
 16 11  1  0
 42 37  1  0
  3  4  1  0
  8  9  1  0
 19 20  1  0
 34 35  1  0
 45 46  1  0
M  END
> <minimizedAffinity>
-12.07690

> <CNNscore>
0.8992092609

> <CNNaffinity>
9.2076454163

> <CNN_VS>
8.2796001434

> <CNNaffinity_variance>
0.1093964800

$$$$



 54 59  0  0  0  0  0  0  0  0999 V2000
   12.6294   24.7809    6.5133 C   0  0  0  0  0  0  0  0  0  0  0  0
   12.7393   23.2464    6.2631 C   0  0  0  0  0  0  0  0  0  0  0  0
   12.2667   22.9608    4.9338 O   0  0  0  0  0  0  0  0  0  0  0  0
   12.8387   23.4010    4.2857 H   0  0  0  0  0  0  0  0  0  0  0  0
   14.1411   22.6339    6.5082 C   0  0  0  0  0  0  0  0  0  0  0  0
   14.1036   21.1984    5.9411 C   0  0  0  0  0  0  0  0  0  0  0  0
   13.0601   20.5483    5.8950 O   0  0  0  0  0  0  0  0  0  0  0  0
   15.3175   20.7300    5.4979 N   0  0  0  0  0  0  0  0  0  0  0  0
   16.0685   21.3598    5.4051 H   0  0  0  0  0  0  0  0  0  0  0  0
   15.5222   19.3372    5.1639 C   0  0  0  0  0  0  0  0  0  0  0  0
   15.5759   19.1653    3.6720 C   0  0  0  0  0  0  0  0  0  0  0  0
   14.5147   19.1948    2.7784 C   0  0  0  0  0  0  0  0  0  0  0  0
   14.7901   19.0563    1.4167 C   0  0  0  0  0  0  0  0  0  0  0  0
   16.1116   18.8982    0.9681 C   0  0  0  0  0  0  0  0  0  0  0  0
   17.1754   18.8734    1.8740 C   0  0  0  0  0  0  0  0  0  0  0  0
   16.8918   19.0005    3.2240 C   0  0  0  0  0  0  0  0  0  0  0  0
   17.8574   19.0355    4.3654 C   0  0  0  0  0  0  0  0  0  0  0  0
   16.9329   18.8107    5.5807 C   0  0  0  0  0  0  0  0  0  0  0  0
   17.4581   19.4658    6.7364 O   0  0  0  0  0  0  0  0  0  0  0  0
   17.5471   20.4150    6.5576 H   0  0  0  0  0  0  0  0  0  0  0  0
   14.4584   22.6265    7.9015 O   0  0  0  0  0  0  0  0  0  0  0  0
   15.7938   23.0515    8.1723 C   0  0  0  0  0  0  0  0  0  0  0  0
   16.4874   21.9319    8.8989 C   0  0  0  0  0  0  0  0  0  0  0  0
   15.7388   20.9447    9.5556 C   0  0  0  0  0  0  0  0  0  0  0  0
   16.3780   19.8949   10.2148 C   0  0  0  0  0  0  0  0  0  0  0  0
   17.7698   19.8168   10.2160 C   0  0  0  0  0  0  0  0  0  0  0  0
   18.5239   20.7849    9.5551 C   0  0  0  0  0  0  0  0  0  0  0  0
   17.8862   21.8373    8.8976 C   0  0  0  0  0  0  0  0  0  0  0  0
   13.6003   25.1108    4.3363 C   0  0  0  0  0  0  0  0  0  0  0  0
   12.6069   25.5268    5.2677 O   0  0  0  0  0  0  0  0  0  0  0  0
   11.3823   25.2135    7.3370 C   0  0  0  0  0  0  0  0  0  0  0  0
   10.1328   25.3067    6.4140 C   0  0  0  0  0  0  0  0  0  0  0  0
    9.3548   24.3717    6.2213 O   0  0  0  0  0  0  0  0  0  0  0  0
   10.0007   26.5034    5.7431 N   0  0  0  0  0  0  0  0  0  0  0  0
   10.4793   27.3015    6.0644 H   0  0  0  0  0  0  0  0  0  0  0  0
    9.1645   26.5902    4.5730 C   0  0  0  0  0  0  0  0  0  0  0  0
    9.0910   25.3052    3.7957 C   0  0  0  0  0  0  0  0  0  0  0  0
   10.1180   24.4337    3.4697 C   0  0  0  0  0  0  0  0  0  0  0  0
    9.8151   23.3155    2.6906 C   0  0  0  0  0  0  0  0  0  0  0  0
    8.5056   23.0928    2.2344 C   0  0  0  0  0  0  0  0  0  0  0  0
    7.4793   23.9854    2.5493 C   0  0  0  0  0  0  0  0  0  0  0  0
    7.7851   25.0823    3.3359 C   0  0  0  0  0  0  0  0  0  0  0  0
    6.8620   26.1867    3.7711 C   0  0  0  0  0  0  0  0  0  0  0  0
    7.6621   26.8055    4.9315 C   0  0  0  0  0  0  0  0  0  0  0  0
    7.3056   26.1324    6.1620 O   0  0  0  0  0  0  0  0  0  0  0  0
    7.4785   25.1821    6.0725 H   0  0  0  0  0  0  0  0  0  0  0  0
   11.6350   26.4415    8.0133 O   0  0  0  0  0  0  0  0  0  0  0  0
   11.3450   26.3960    9.4071 C   0  0  0  0  0  0  0  0  0  0  0  0
   10.1441   27.2650    9.6679 C   0  0  0  0  0  0  0  0  0  0  0  0
    9.0040   27.1658    8.8576 C   0  0  0  0  0  0  0  0  0  0  0  0
    7.8831   27.9568    9.1163 C   0  0  0  0  0  0  0  0  0  0  0  0
    7.8888   28.8461   10.1903 C   0  0  0  0  0  0  0  0  0  0  0  0
    9.0140   28.9461   11.0076 C   0  0  0  0  0  0  0  0  0  0  0  0
   10.1351   28.1562   10.7498 C   0  0  0  0  0  0  0  0  0  0  0  0
 29 30  1  0
  1 30  1  0
  1  2  1  0
  2  3  1  0
  2  5  1  0
  5 21  1  0
 21 22  1  0
 22 23  1  0
 23 24  2  0
 24 25  1  0
 25 26  2  0
 26 27  1  0
 27 28  2  0
  5  6  1  0
  6  7  2  0
  6  8  1  0
 10  8  1  0
 10 11  1  0
 11 12  2  0
 12 13  1  0
 13 14  2  0
 14 15  1  0
 15 16  2  0
 16 17  1  0
 17 18  1  0
 18 19  1  0
  1 31  1  0
 31 47  1  0
 47 48  1  0
 48 49  1  0
 49 50  2  0
 50 51  1  0
 51 52  2  0
 52 53  1  0
 53 54  2  0
 31 32  1  0
 32 33  2  0
 32 34  1  0
 36 34  1  0
 36 37  1  0
 37 38  2  0
 38 39  1  0
 39 40  2  0
 40 41  1  0
 41 42  2  0
 42 43  1  0
 43 44  1  0
 44 45  1  0
 28 23  1  0
 18 10  1  0
 54 49  1  0
 44 36  1  0
 16 11  1  0
 42 37  1  0
  3  4  1  0
  8  9  1  0
 19 20  1  0
 34 35  1  0
 45 46  1  0
M  END
> <minimizedAffinity>
-9.79113

> <CNNscore>
0.7982604504

> <CNNaffinity>
8.8498821259

> <CNN_VS>
7.0645108223

> <CNNaffinity_variance>
0.0798384100

$$$$



 54 59  0  0  0  0  0  0  0  0999 V2000
   13.9167   22.4771    4.9573 C   0  0  0  0  0  0  0  0  0  0  0  0
   12.4052   22.8406    4.8437 C   0  0  0  0  0  0  0  0  0  0  0  0
   11.6665   22.0412    5.7855 O   0  0  0  0  0  0  0  0  0  0  0  0
   11.9493   22.2599    6.6872 H   0  0  0  0  0  0  0  0  0  0  0  0
   12.0725   24.3460    4.9968 C   0  0  0  0  0  0  0  0  0  0  0  0
   10.9260   24.4447    6.0261 C   0  0  0  0  0  0  0  0  0  0  0  0
   10.6982   23.5408    6.8291 O   0  0  0  0  0  0  0  0  0  0  0  0
   10.2054   25.6135    5.9646 N   0  0  0  0  0  0  0  0  0  0  0  0
   10.5480   26.3589    5.4202 H   0  0  0  0  0  0  0  0  0  0  0  0
    8.9574   25.7790    6.6775 C   0  0  0  0  0  0  0  0  0  0  0  0
    9.1993   26.4663    7.9918 C   0  0  0  0  0  0  0  0  0  0  0  0
    9.7521   25.9216    9.1422 C   0  0  0  0  0  0  0  0  0  0  0  0
    9.9310   26.7523   10.2498 C   0  0  0  0  0  0  0  0  0  0  0  0
    9.5647   28.1071   10.1927 C   0  0  0  0  0  0  0  0  0  0  0  0
    9.0122   28.6493    9.0292 C   0  0  0  0  0  0  0  0  0  0  0  0
    8.8282   27.8150    7.9387 C   0  0  0  0  0  0  0  0  0  0  0  0
    8.2911   28.1728    6.5896 C   0  0  0  0  0  0  0  0  0  0  0  0
    7.9865   26.7868    5.9827 C   0  0  0  0  0  0  0  0  0  0  0  0
    8.1336   26.8198    4.5621 O   0  0  0  0  0  0  0  0  0  0  0  0
    9.0375   27.0900    4.3368 H   0  0  0  0  0  0  0  0  0  0  0  0
   11.6865   24.9136    3.7435 O   0  0  0  0  0  0  0  0  0  0  0  0
   11.2568   23.9360    2.7964 C   0  0  0  0  0  0  0  0  0  0  0  0
    9.8226   24.2348    2.4553 C   0  0  0  0  0  0  0  0  0  0  0  0
    8.8022   23.3658    2.8676 C   0  0  0  0  0  0  0  0  0  0  0  0
    7.4696   23.6490    2.5691 C   0  0  0  0  0  0  0  0  0  0  0  0
    7.1437   24.8069    1.8646 C   0  0  0  0  0  0  0  0  0  0  0  0
    8.1484   25.6848    1.4615 C   0  0  0  0  0  0  0  0  0  0  0  0
    9.4822   25.4017    1.7567 C   0  0  0  0  0  0  0  0  0  0  0  0
   13.8783   23.9185    6.8839 C   0  0  0  0  0  0  0  0  0  0  0  0
   14.6368   23.4311    5.7819 O   0  0  0  0  0  0  0  0  0  0  0  0
   14.1988   21.0592    5.5324 C   0  0  0  0  0  0  0  0  0  0  0  0
   14.7236   21.1650    6.9936 C   0  0  0  0  0  0  0  0  0  0  0  0
   14.0205   21.4941    7.9496 O   0  0  0  0  0  0  0  0  0  0  0  0
   16.0769   20.9467    7.1364 N   0  0  0  0  0  0  0  0  0  0  0  0
   16.5750   20.4748    6.4304 H   0  0  0  0  0  0  0  0  0  0  0  0
   16.7651   21.4070    8.3156 C   0  0  0  0  0  0  0  0  0  0  0  0
   17.0395   20.3139    9.3109 C   0  0  0  0  0  0  0  0  0  0  0  0
   16.1966   19.2973    9.7308 C   0  0  0  0  0  0  0  0  0  0  0  0
   16.6584   18.4165   10.7106 C   0  0  0  0  0  0  0  0  0  0  0  0
   17.9382   18.5714   11.2682 C   0  0  0  0  0  0  0  0  0  0  0  0
   18.7749   19.6099   10.8555 C   0  0  0  0  0  0  0  0  0  0  0  0
   18.3154   20.4684    9.8720 C   0  0  0  0  0  0  0  0  0  0  0  0
   19.0177   21.6678    9.2980 C   0  0  0  0  0  0  0  0  0  0  0  0
   18.2133   21.8952    8.0054 C   0  0  0  0  0  0  0  0  0  0  0  0
   18.8158   21.1310    6.9343 O   0  0  0  0  0  0  0  0  0  0  0  0
   18.8420   20.1933    7.1812 H   0  0  0  0  0  0  0  0  0  0  0  0
   15.1074   20.3540    4.6921 O   0  0  0  0  0  0  0  0  0  0  0  0
   14.8397   18.9576    4.6065 C   0  0  0  0  0  0  0  0  0  0  0  0
   15.9037   18.3247    3.7505 C   0  0  0  0  0  0  0  0  0  0  0  0
   16.9178   17.5501    4.3318 C   0  0  0  0  0  0  0  0  0  0  0  0
   17.8898   16.9452    3.5330 C   0  0  0  0  0  0  0  0  0  0  0  0
   17.8520   17.1019    2.1480 C   0  0  0  0  0  0  0  0  0  0  0  0
   16.8428   17.8627    1.5590 C   0  0  0  0  0  0  0  0  0  0  0  0
   15.8708   18.4680    2.3565 C   0  0  0  0  0  0  0  0  0  0  0  0
 29 30  1  0
  1 30  1  0
  1  2  1  0
  2  3  1  0
  2  5  1  0
  5 21  1  0
 21 22  1  0
 22 23  1  0
 23 24  2  0
 24 25  1  0
 25 26  2  0
 26 27  1  0
 27 28  2  0
  5  6  1  0
  6  7  2  0
  6  8  1  0
 10  8  1  0
 10 11  1  0
 11 12  2  0
 12 13  1  0
 13 14  2  0
 14 15  1  0
 15 16  2  0
 16 17  1  0
 17 18  1  0
 18 19  1  0
  1 31  1  0
 31 47  1  0
 47 48  1  0
 48 49  1  0
 49 50  2  0
 50 51  1  0
 51 52  2  0
 52 53  1  0
 53 54  2  0
 31 32  1  0
 32 33  2  0
 32 34  1  0
 36 34  1  0
 36 37  1  0
 37 38  2  0
 38 39  1  0
 39 40  2  0
 40 41  1  0
 41 42  2  0
 42 43  1  0
 43 44  1  0
 44 45  1  0
 28 23  1  0
 18 10  1  0
 54 49  1  0
 44 36  1  0
 16 11  1  0
 42 37  1  0
  3  4  1  0
  8  9  1  0
 19 20  1  0
 34 35  1  0
 45 46  1  0
M  END
> <minimizedAffinity>
-10.60691

> <CNNscore>
0.7938234806

> <CNNaffinity>
8.8371381760

> <CNN_VS>
7.0151276588

> <CNNaffinity_variance>
0.2233689427

$$$$



 54 59  0  0  0  0  0  0  0  0999 V2000
   13.9291   23.9093    6.8462 C   0  0  0  0  0  0  0  0  0  0  0  0
   14.7071   22.8254    7.6521 C   0  0  0  0  0  0  0  0  0  0  0  0
   13.8079   21.7439    7.9578 O   0  0  0  0  0  0  0  0  0  0  0  0
   13.5071   21.3307    7.1334 H   0  0  0  0  0  0  0  0  0  0  0  0
   16.0061   22.3087    6.9844 C   0  0  0  0  0  0  0  0  0  0  0  0
   15.6614   20.9516    6.3340 C   0  0  0  0  0  0  0  0  0  0  0  0
   14.5058   20.5320    6.2869 O   0  0  0  0  0  0  0  0  0  0  0  0
   16.7425   20.2763    5.8197 N   0  0  0  0  0  0  0  0  0  0  0  0
   17.6045   20.7448    5.7377 H   0  0  0  0  0  0  0  0  0  0  0  0
   16.6489   18.8962    5.3957 C   0  0  0  0  0  0  0  0  0  0  0  0
   16.3100   18.8260    3.9333 C   0  0  0  0  0  0  0  0  0  0  0  0
   15.0793   19.0634    3.3378 C   0  0  0  0  0  0  0  0  0  0  0  0
   14.9897   18.9869    1.9467 C   0  0  0  0  0  0  0  0  0  0  0  0
   16.1226   18.6834    1.1739 C   0  0  0  0  0  0  0  0  0  0  0  0
   17.3594   18.4494    1.7808 C   0  0  0  0  0  0  0  0  0  0  0  0
   17.4366   18.5167    3.1623 C   0  0  0  0  0  0  0  0  0  0  0  0
   18.6460   18.3382    4.0237 C   0  0  0  0  0  0  0  0  0  0  0  0
   18.0236   18.1544    5.4241 C   0  0  0  0  0  0  0  0  0  0  0  0
   18.9072   18.6475    6.4326 O   0  0  0  0  0  0  0  0  0  0  0  0
   19.0906   19.5862    6.2710 H   0  0  0  0  0  0  0  0  0  0  0  0
   17.0525   22.1648    7.9469 O   0  0  0  0  0  0  0  0  0  0  0  0
   16.5668   21.9587    9.2731 C   0  0  0  0  0  0  0  0  0  0  0  0
   16.9952   20.5828    9.7042 C   0  0  0  0  0  0  0  0  0  0  0  0
   16.0428   19.6492   10.1374 C   0  0  0  0  0  0  0  0  0  0  0  0
   16.4341   18.3665   10.5204 C   0  0  0  0  0  0  0  0  0  0  0  0
   17.7784   18.0019   10.4651 C   0  0  0  0  0  0  0  0  0  0  0  0
   18.7323   18.9172   10.0232 C   0  0  0  0  0  0  0  0  0  0  0  0
   18.3430   20.2017    9.6425 C   0  0  0  0  0  0  0  0  0  0  0  0
   15.1789   24.1786    4.8076 C   0  0  0  0  0  0  0  0  0  0  0  0
   13.9980   23.6664    5.4163 O   0  0  0  0  0  0  0  0  0  0  0  0
   12.4253   24.0398    7.2238 C   0  0  0  0  0  0  0  0  0  0  0  0
   11.5380   23.3458    6.1500 C   0  0  0  0  0  0  0  0  0  0  0  0
   11.3913   22.1257    6.0700 O   0  0  0  0  0  0  0  0  0  0  0  0
   10.9857   24.2001    5.2201 N   0  0  0  0  0  0  0  0  0  0  0  0
   10.9200   25.1626    5.4162 H   0  0  0  0  0  0  0  0  0  0  0  0
   10.5040   23.6890    3.9621 C   0  0  0  0  0  0  0  0  0  0  0  0
    9.3357   24.4599    3.4130 C   0  0  0  0  0  0  0  0  0  0  0  0
    8.2214   24.9343    4.0865 C   0  0  0  0  0  0  0  0  0  0  0  0
    7.2319   25.5890    3.3506 C   0  0  0  0  0  0  0  0  0  0  0  0
    7.3570   25.7441    1.9603 C   0  0  0  0  0  0  0  0  0  0  0  0
    8.4725   25.2460    1.2846 C   0  0  0  0  0  0  0  0  0  0  0  0
    9.4563   24.6131    2.0243 C   0  0  0  0  0  0  0  0  0  0  0  0
   10.7183   23.9722    1.5165 C   0  0  0  0  0  0  0  0  0  0  0  0
   11.5425   23.8665    2.8123 C   0  0  0  0  0  0  0  0  0  0  0  0
   12.3193   25.0763    2.9773 O   0  0  0  0  0  0  0  0  0  0  0  0
   11.7250   25.8428    2.9907 H   0  0  0  0  0  0  0  0  0  0  0  0
   12.0738   25.4091    7.3982 O   0  0  0  0  0  0  0  0  0  0  0  0
   10.7026   25.6855    7.1290 C   0  0  0  0  0  0  0  0  0  0  0  0
   10.1992   26.6411    8.1771 C   0  0  0  0  0  0  0  0  0  0  0  0
   10.7953   26.6854    9.4455 C   0  0  0  0  0  0  0  0  0  0  0  0
   10.3411   27.5890   10.4078 C   0  0  0  0  0  0  0  0  0  0  0  0
    9.2947   28.4607   10.1085 C   0  0  0  0  0  0  0  0  0  0  0  0
    8.7009   28.4311    8.8473 C   0  0  0  0  0  0  0  0  0  0  0  0
    9.1538   27.5280    7.8847 C   0  0  0  0  0  0  0  0  0  0  0  0
 29 30  1  0
  1 30  1  0
  1  2  1  0
  2  3  1  0
  2  5  1  0
  5 21  1  0
 21 22  1  0
 22 23  1  0
 23 24  2  0
 24 25  1  0
 25 26  2  0
 26 27  1  0
 27 28  2  0
  5  6  1  0
  6  7  2  0
  6  8  1  0
 10  8  1  0
 10 11  1  0
 11 12  2  0
 12 13  1  0
 13 14  2  0
 14 15  1  0
 15 16  2  0
 16 17  1  0
 17 18  1  0
 18 19  1  0
  1 31  1  0
 31 47  1  0
 47 48  1  0
 48 49  1  0
 49 50  2  0
 50 51  1  0
 51 52  2  0
 52 53  1  0
 53 54  2  0
 31 32  1  0
 32 33  2  0
 32 34  1  0
 36 34  1  0
 36 37  1  0
 37 38  2  0
 38 39  1  0
 39 40  2  0
 40 41  1  0
 41 42  2  0
 42 43  1  0
 43 44  1  0
 44 45  1  0
 28 23  1  0
 18 10  1  0
 54 49  1  0
 44 36  1  0
 16 11  1  0
 42 37  1  0
  3  4  1  0
  8  9  1  0
 19 20  1  0
 34 35  1  0
 45 46  1  0
M  END
> <minimizedAffinity>
-10.38717

> <CNNscore>
0.7454602718

> <CNNaffinity>
8.6802091599

> <CNN_VS>
6.4707512856

> <CNNaffinity_variance>
0.1316980720

$$$$



 54 59  0  0  0  0  0  0  0  0999 V2000
   14.0566   23.3243    7.0213 C   0  0  0  0  0  0  0  0  0  0  0  0
   13.2102   24.3600    6.2210 C   0  0  0  0  0  0  0  0  0  0  0  0
   13.8036   24.5349    4.9212 O   0  0  0  0  0  0  0  0  0  0  0  0
   13.7696   23.6963    4.4349 H   0  0  0  0  0  0  0  0  0  0  0  0
   11.6985   24.0385    6.1134 C   0  0  0  0  0  0  0  0  0  0  0  0
   11.4477   23.5630    4.6661 C   0  0  0  0  0  0  0  0  0  0  0  0
   12.3310   23.0246    4.0001 O   0  0  0  0  0  0  0  0  0  0  0  0
   10.1720   23.7878    4.2065 N   0  0  0  0  0  0  0  0  0  0  0  0
    9.4746   24.0616    4.8451 H   0  0  0  0  0  0  0  0  0  0  0  0
    9.8257   23.6333    2.8103 C   0  0  0  0  0  0  0  0  0  0  0  0
    8.3638   23.9147    2.6055 C   0  0  0  0  0  0  0  0  0  0  0  0
    7.2910   23.0979    2.9333 C   0  0  0  0  0  0  0  0  0  0  0  0
    5.9994   23.5724    2.6970 C   0  0  0  0  0  0  0  0  0  0  0  0
    5.7973   24.8489    2.1470 C   0  0  0  0  0  0  0  0  0  0  0  0
    6.8828   25.6672    1.8232 C   0  0  0  0  0  0  0  0  0  0  0  0
    8.1609   25.1839    2.0509 C   0  0  0  0  0  0  0  0  0  0  0  0
    9.4619   25.8834    1.8170 C   0  0  0  0  0  0  0  0  0  0  0  0
   10.4748   24.7216    1.8963 C   0  0  0  0  0  0  0  0  0  0  0  0
   11.7334   25.1880    2.3854 O   0  0  0  0  0  0  0  0  0  0  0  0
   11.6127   25.5842    3.2625 H   0  0  0  0  0  0  0  0  0  0  0  0
   10.9088   25.1897    6.4187 O   0  0  0  0  0  0  0  0  0  0  0  0
    9.8354   24.9084    7.3165 C   0  0  0  0  0  0  0  0  0  0  0  0
    9.6856   26.0941    8.2298 C   0  0  0  0  0  0  0  0  0  0  0  0
    8.4415   26.7255    8.3702 C   0  0  0  0  0  0  0  0  0  0  0  0
    8.2944   27.8136    9.2301 C   0  0  0  0  0  0  0  0  0  0  0  0
    9.3861   28.2747    9.9643 C   0  0  0  0  0  0  0  0  0  0  0  0
   10.6244   27.6464    9.8431 C   0  0  0  0  0  0  0  0  0  0  0  0
   10.7739   26.5596    8.9811 C   0  0  0  0  0  0  0  0  0  0  0  0
   12.5593   21.6260    6.2062 C   0  0  0  0  0  0  0  0  0  0  0  0
   13.2944   22.1248    7.3189 O   0  0  0  0  0  0  0  0  0  0  0  0
   15.3688   22.8781    6.3143 C   0  0  0  0  0  0  0  0  0  0  0  0
   15.3827   21.3329    6.1296 C   0  0  0  0  0  0  0  0  0  0  0  0
   14.6843   20.5602    6.7868 O   0  0  0  0  0  0  0  0  0  0  0  0
   16.3123   20.8698    5.2235 N   0  0  0  0  0  0  0  0  0  0  0  0
   16.6950   21.4839    4.5559 H   0  0  0  0  0  0  0  0  0  0  0  0
   16.7259   19.4899    5.2503 C   0  0  0  0  0  0  0  0  0  0  0  0
   16.8069   18.8648    3.8852 C   0  0  0  0  0  0  0  0  0  0  0  0
   15.9160   18.9780    2.8298 C   0  0  0  0  0  0  0  0  0  0  0  0
   16.1790   18.2603    1.6616 C   0  0  0  0  0  0  0  0  0  0  0  0
   17.3084   17.4306    1.5687 C   0  0  0  0  0  0  0  0  0  0  0  0
   18.1913   17.3051    2.6428 C   0  0  0  0  0  0  0  0  0  0  0  0
   17.9319   18.0329    3.7910 C   0  0  0  0  0  0  0  0  0  0  0  0
   18.7141   18.0325    5.0754 C   0  0  0  0  0  0  0  0  0  0  0  0
   18.1964   19.3202    5.7413 C   0  0  0  0  0  0  0  0  0  0  0  0
   19.0276   20.4310    5.3299 O   0  0  0  0  0  0  0  0  0  0  0  0
   19.0209   20.4989    4.3623 H   0  0  0  0  0  0  0  0  0  0  0  0
   16.5052   23.3356    7.0412 O   0  0  0  0  0  0  0  0  0  0  0  0
   16.2883   23.4198    8.4464 C   0  0  0  0  0  0  0  0  0  0  0  0
   16.6550   22.0956    9.0607 C   0  0  0  0  0  0  0  0  0  0  0  0
   15.7284   21.3935    9.8448 C   0  0  0  0  0  0  0  0  0  0  0  0
   16.0636   20.1546   10.3940 C   0  0  0  0  0  0  0  0  0  0  0  0
   17.3224   19.6036   10.1578 C   0  0  0  0  0  0  0  0  0  0  0  0
   18.2481   20.2893    9.3722 C   0  0  0  0  0  0  0  0  0  0  0  0
   17.9143   21.5278    8.8229 C   0  0  0  0  0  0  0  0  0  0  0  0
 29 30  1  0
  1 30  1  0
  1  2  1  0
  2  3  1  0
  2  5  1  0
  5 21  1  0
 21 22  1  0
 22 23  1  0
 23 24  2  0
 24 25  1  0
 25 26  2  0
 26 27  1  0
 27 28  2  0
  5  6  1  0
  6  7  2  0
  6  8  1  0
 10  8  1  0
 10 11  1  0
 11 12  2  0
 12 13  1  0
 13 14  2  0
 14 15  1  0
 15 16  2  0
 16 17  1  0
 17 18  1  0
 18 19  1  0
  1 31  1  0
 31 47  1  0
 47 48  1  0
 48 49  1  0
 49 50  2  0
 50 51  1  0
 51 52  2  0
 52 53  1  0
 53 54  2  0
 31 32  1  0
 32 33  2  0
 32 34  1  0
 36 34  1  0
 36 37  1  0
 37 38  2  0
 38 39  1  0
 39 40  2  0
 40 41  1  0
 41 42  2  0
 42 43  1  0
 43 44  1  0
 44 45  1  0
 28 23  1  0
 18 10  1  0
 54 49  1  0
 44 36  1  0
 16 11  1  0
 42 37  1  0
  3  4  1  0
  8  9  1  0
 19 20  1  0
 34 35  1  0
 45 46  1  0
M  END
> <minimizedAffinity>
-11.78723

> <CNNscore>
0.7089403272

> <CNNaffinity>
8.6059761047

> <CNN_VS>
6.1011233330

> <CNNaffinity_variance>
0.0109650595

$$$$



 54 59  0  0  0  0  0  0  0  0999 V2000
   12.2180   24.6087    4.5079 C   0  0  0  0  0  0  0  0  0  0  0  0
   13.5763   23.8968    4.2292 C   0  0  0  0  0  0  0  0  0  0  0  0
   14.6469   24.7807    4.6094 O   0  0  0  0  0  0  0  0  0  0  0  0
   14.6010   24.9527    5.5629 H   0  0  0  0  0  0  0  0  0  0  0  0
   13.7383   22.5004    4.8804 C   0  0  0  0  0  0  0  0  0  0  0  0
   14.7013   22.6763    6.0742 C   0  0  0  0  0  0  0  0  0  0  0  0
   14.6043   23.6274    6.8486 O   0  0  0  0  0  0  0  0  0  0  0  0
   15.6506   21.6890    6.1896 N   0  0  0  0  0  0  0  0  0  0  0  0
   15.5624   20.8742    5.6441 H   0  0  0  0  0  0  0  0  0  0  0  0
   16.7758   21.8139    7.0904 C   0  0  0  0  0  0  0  0  0  0  0  0
   16.3861   21.3651    8.4706 C   0  0  0  0  0  0  0  0  0  0  0  0
   15.6070   22.0482    9.3937 C   0  0  0  0  0  0  0  0  0  0  0  0
   15.3257   21.4280   10.6125 C   0  0  0  0  0  0  0  0  0  0  0  0
   15.8165   20.1413   10.8888 C   0  0  0  0  0  0  0  0  0  0  0  0
   16.5972   19.4582    9.9524 C   0  0  0  0  0  0  0  0  0  0  0  0
   16.8804   20.0857    8.7503 C   0  0  0  0  0  0  0  0  0  0  0  0
   17.6597   19.5451    7.5940 C   0  0  0  0  0  0  0  0  0  0  0  0
   17.9332   20.8167    6.7631 C   0  0  0  0  0  0  0  0  0  0  0  0
   18.0227   20.4965    5.3737 O   0  0  0  0  0  0  0  0  0  0  0  0
   17.1953   20.0814    5.0837 H   0  0  0  0  0  0  0  0  0  0  0  0
   14.2542   21.5556    3.9405 O   0  0  0  0  0  0  0  0  0  0  0  0
   14.1984   20.2101    4.4134 C   0  0  0  0  0  0  0  0  0  0  0  0
   15.0942   19.3825    3.5331 C   0  0  0  0  0  0  0  0  0  0  0  0
   15.8121   18.3041    4.0697 C   0  0  0  0  0  0  0  0  0  0  0  0
   16.6295   17.5231    3.2530 C   0  0  0  0  0  0  0  0  0  0  0  0
   16.7298   17.8064    1.8918 C   0  0  0  0  0  0  0  0  0  0  0  0
   16.0103   18.8675    1.3447 C   0  0  0  0  0  0  0  0  0  0  0  0
   15.1945   19.6516    2.1608 C   0  0  0  0  0  0  0  0  0  0  0  0
   12.2190   24.6480    2.1018 C   0  0  0  0  0  0  0  0  0  0  0  0
   11.6509   25.1742    3.2966 O   0  0  0  0  0  0  0  0  0  0  0  0
   11.1312   23.6987    5.1494 C   0  0  0  0  0  0  0  0  0  0  0  0
    9.8466   23.6923    4.2709 C   0  0  0  0  0  0  0  0  0  0  0  0
    9.7980   23.2177    3.1356 O   0  0  0  0  0  0  0  0  0  0  0  0
    8.7671   24.3458    4.8251 N   0  0  0  0  0  0  0  0  0  0  0  0
    8.7420   24.5173    5.7942 H   0  0  0  0  0  0  0  0  0  0  0  0
    7.6751   24.7786    3.9907 C   0  0  0  0  0  0  0  0  0  0  0  0
    8.1195   25.5499    2.7790 C   0  0  0  0  0  0  0  0  0  0  0  0
    9.0846   26.5407    2.6926 C   0  0  0  0  0  0  0  0  0  0  0  0
    9.2946   27.1544    1.4564 C   0  0  0  0  0  0  0  0  0  0  0  0
    8.5320   26.7880    0.3353 C   0  0  0  0  0  0  0  0  0  0  0  0
    7.5472   25.8033    0.4336 C   0  0  0  0  0  0  0  0  0  0  0  0
    7.3571   25.1885    1.6589 C   0  0  0  0  0  0  0  0  0  0  0  0
    6.3425   24.1361    2.0112 C   0  0  0  0  0  0  0  0  0  0  0  0
    6.9279   23.5835    3.3232 C   0  0  0  0  0  0  0  0  0  0  0  0
    7.8307   22.4951    3.0155 O   0  0  0  0  0  0  0  0  0  0  0  0
    8.5254   22.8107    2.4166 H   0  0  0  0  0  0  0  0  0  0  0  0
   10.8591   24.1150    6.4841 O   0  0  0  0  0  0  0  0  0  0  0  0
   11.6597   25.2116    6.9148 C   0  0  0  0  0  0  0  0  0  0  0  0
   10.8321   26.0675    7.8354 C   0  0  0  0  0  0  0  0  0  0  0  0
    9.4940   26.3545    7.5295 C   0  0  0  0  0  0  0  0  0  0  0  0
    8.7222   27.1295    8.3970 C   0  0  0  0  0  0  0  0  0  0  0  0
    9.2773   27.6165    9.5797 C   0  0  0  0  0  0  0  0  0  0  0  0
   10.6043   27.3295    9.8977 C   0  0  0  0  0  0  0  0  0  0  0  0
   11.3768   26.5552    9.0312 C   0  0  0  0  0  0  0  0  0  0  0  0
 29 30  1  0
  1 30  1  0
  1  2  1  0
  2  3  1  0
  2  5  1  0
  5 21  1  0
 21 22  1  0
 22 23  1  0
 23 24  2  0
 24 25  1  0
 25 26  2  0
 26 27  1  0
 27 28  2  0
  5  6  1  0
  6  7  2  0
  6  8  1  0
 10  8  1  0
 10 11  1  0
 11 12  2  0
 12 13  1  0
 13 14  2  0
 14 15  1  0
 15 16  2  0
 16 17  1  0
 17 18  1  0
 18 19  1  0
  1 31  1  0
 31 47  1  0
 47 48  1  0
 48 49  1  0
 49 50  2  0
 50 51  1  0
 51 52  2  0
 52 53  1  0
 53 54  2  0
 31 32  1  0
 32 33  2  0
 32 34  1  0
 36 34  1  0
 36 37  1  0
 37 38  2  0
 38 39  1  0
 39 40  2  0
 40 41  1  0
 41 42  2  0
 42 43  1  0
 43 44  1  0
 44 45  1  0
 28 23  1  0
 18 10  1  0
 54 49  1  0
 44 36  1  0
 16 11  1  0
 42 37  1  0
  3  4  1  0
  8  9  1  0
 19 20  1  0
 34 35  1  0
 45 46  1  0
M  END
> <minimizedAffinity>
-8.17673

> <CNNscore>
0.6593567729

> <CNNaffinity>
8.4127883911

> <CNN_VS>
5.5470290184

> <CNNaffinity_variance>
0.0014905795

$$$$



 54 59  0  0  0  0  0  0  0  0999 V2000
   11.7440   24.5986    5.0021 C   0  0  0  0  0  0  0  0  0  0  0  0
   11.8043   23.2607    5.7996 C   0  0  0  0  0  0  0  0  0  0  0  0
   10.7890   22.3753    5.2924 O   0  0  0  0  0  0  0  0  0  0  0  0
   10.9763   22.1669    4.3637 H   0  0  0  0  0  0  0  0  0  0  0  0
   13.1910   22.5707    5.8321 C   0  0  0  0  0  0  0  0  0  0  0  0
   13.8890   23.0381    7.1275 C   0  0  0  0  0  0  0  0  0  0  0  0
   13.7487   24.1807    7.5616 O   0  0  0  0  0  0  0  0  0  0  0  0
   14.6589   22.0767    7.7375 N   0  0  0  0  0  0  0  0  0  0  0  0
   14.5879   21.1429    7.4337 H   0  0  0  0  0  0  0  0  0  0  0  0
   15.5707   22.3987    8.8137 C   0  0  0  0  0  0  0  0  0  0  0  0
   16.1895   21.1433    9.3608 C   0  0  0  0  0  0  0  0  0  0  0  0
   15.5961   20.1968   10.1840 C   0  0  0  0  0  0  0  0  0  0  0  0
   16.3397   19.0717   10.5448 C   0  0  0  0  0  0  0  0  0  0  0  0
   17.6535   18.9042   10.0771 C   0  0  0  0  0  0  0  0  0  0  0  0
   18.2428   19.8599    9.2451 C   0  0  0  0  0  0  0  0  0  0  0  0
   17.5014   20.9784    8.9012 C   0  0  0  0  0  0  0  0  0  0  0  0
   17.9042   22.1071    8.0065 C   0  0  0  0  0  0  0  0  0  0  0  0
   16.8372   23.1746    8.3290 C   0  0  0  0  0  0  0  0  0  0  0  0
   16.5899   23.9956    7.1864 O   0  0  0  0  0  0  0  0  0  0  0  0
   16.2927   23.4411    6.4481 H   0  0  0  0  0  0  0  0  0  0  0  0
   13.9616   22.9190    4.6802 O   0  0  0  0  0  0  0  0  0  0  0  0
   15.2674   22.3426    4.6868 C   0  0  0  0  0  0  0  0  0  0  0  0
   15.1549   20.9583    4.1092 C   0  0  0  0  0  0  0  0  0  0  0  0
   15.2350   19.8350    4.9448 C   0  0  0  0  0  0  0  0  0  0  0  0
   15.1127   18.5505    4.4154 C   0  0  0  0  0  0  0  0  0  0  0  0
   14.9000   18.3769    3.0488 C   0  0  0  0  0  0  0  0  0  0  0  0
   14.8051   19.4865    2.2105 C   0  0  0  0  0  0  0  0  0  0  0  0
   14.9301   20.7721    2.7379 C   0  0  0  0  0  0  0  0  0  0  0  0
   11.8853   24.7840    2.6070 C   0  0  0  0  0  0  0  0  0  0  0  0
   12.5907   24.5584    3.8231 O   0  0  0  0  0  0  0  0  0  0  0  0
   10.3175   25.0096    4.5364 C   0  0  0  0  0  0  0  0  0  0  0  0
    9.6645   25.9635    5.5784 C   0  0  0  0  0  0  0  0  0  0  0  0
   10.1678   27.0280    5.9393 O   0  0  0  0  0  0  0  0  0  0  0  0
    8.5040   25.4859    6.1482 N   0  0  0  0  0  0  0  0  0  0  0  0
    8.0004   24.7652    5.7052 H   0  0  0  0  0  0  0  0  0  0  0  0
    8.0255   26.0379    7.3900 C   0  0  0  0  0  0  0  0  0  0  0  0
    9.1273   26.5191    8.2928 C   0  0  0  0  0  0  0  0  0  0  0  0
   10.3337   25.9035    8.5861 C   0  0  0  0  0  0  0  0  0  0  0  0
   11.1883   26.5230    9.4999 C   0  0  0  0  0  0  0  0  0  0  0  0
   10.8229   27.7297   10.1188 C   0  0  0  0  0  0  0  0  0  0  0  0
    9.5973   28.3345    9.8344 C   0  0  0  0  0  0  0  0  0  0  0  0
    8.7635   27.7221    8.9149 C   0  0  0  0  0  0  0  0  0  0  0  0
    7.3940   28.1644    8.4792 C   0  0  0  0  0  0  0  0  0  0  0  0
    7.2169   27.3551    7.1818 C   0  0  0  0  0  0  0  0  0  0  0  0
    7.7311   28.1266    6.0707 O   0  0  0  0  0  0  0  0  0  0  0  0
    8.6617   28.3466    6.2330 H   0  0  0  0  0  0  0  0  0  0  0  0
    9.5190   23.8535    4.3021 O   0  0  0  0  0  0  0  0  0  0  0  0
    9.2617   23.6070    2.9230 C   0  0  0  0  0  0  0  0  0  0  0  0
    7.8360   23.9922    2.6327 C   0  0  0  0  0  0  0  0  0  0  0  0
    7.5403   24.9171    1.6210 C   0  0  0  0  0  0  0  0  0  0  0  0
    6.2156   25.2548    1.3386 C   0  0  0  0  0  0  0  0  0  0  0  0
    5.1762   24.6658    2.0576 C   0  0  0  0  0  0  0  0  0  0  0  0
    5.4589   23.7382    3.0595 C   0  0  0  0  0  0  0  0  0  0  0  0
    6.7827   23.4001    3.3430 C   0  0  0  0  0  0  0  0  0  0  0  0
 29 30  1  0
  1 30  1  0
  1  2  1  0
  2  3  1  0
  2  5  1  0
  5 21  1  0
 21 22  1  0
 22 23  1  0
 23 24  2  0
 24 25  1  0
 25 26  2  0
 26 27  1  0
 27 28  2  0
  5  6  1  0
  6  7  2  0
  6  8  1  0
 10  8  1  0
 10 11  1  0
 11 12  2  0
 12 13  1  0
 13 14  2  0
 14 15  1  0
 15 16  2  0
 16 17  1  0
 17 18  1  0
 18 19  1  0
  1 31  1  0
 31 47  1  0
 47 48  1  0
 48 49  1  0
 49 50  2  0
 50 51  1  0
 51 52  2  0
 52 53  1  0
 53 54  2  0
 31 32  1  0
 32 33  2  0
 32 34  1  0
 36 34  1  0
 36 37  1  0
 37 38  2  0
 38 39  1  0
 39 40  2  0
 40 41  1  0
 41 42  2  0
 42 43  1  0
 43 44  1  0
 44 45  1  0
 28 23  1  0
 18 10  1  0
 54 49  1  0
 44 36  1  0
 16 11  1  0
 42 37  1  0
  3  4  1  0
  8  9  1  0
 19 20  1  0
 34 35  1  0
 45 46  1  0
M  END
> <minimizedAffinity>
-10.96147

> <CNNscore>
0.5730931163

> <CNNaffinity>
8.4157934189

> <CNN_VS>
4.8230333328

> <CNNaffinity_variance>
0.0989801511

$$$$
