


 50 51  0  0  0  0  0  0  0  0999 V2000
   35.7323   41.9255   -4.3137 N   0  0  0  0  0  0  0  0  0  0  0  0
   34.8728   42.3133   -3.9246 H   0  0  0  0  0  0  0  0  0  0  0  0
   35.7984   42.4300   -5.8488 P   0  0  0  0  0  0  0  0  0  0  0  0
   37.1705   42.5107   -6.4441 O   0  0  0  0  0  0  0  0  0  0  0  0
   35.2072   43.9205   -5.7297 O   0  0  0  0  0  0  0  0  0  0  0  0
   35.8076   44.4649   -5.1967 H   0  0  0  0  0  0  0  0  0  0  0  0
   34.5698   41.5420   -6.8678 C   0  0  0  0  0  0  0  0  0  0  0  0
   34.6402   42.0344   -8.2438 N   0  0  0  0  0  0  0  0  0  0  0  0
   33.8244   43.0429   -8.6696 C   0  0  0  0  0  0  0  0  0  0  0  0
   32.7858   43.3861   -8.1260 O   0  0  0  0  0  0  0  0  0  0  0  0
   35.2844   41.6332   -8.8709 H   0  0  0  0  0  0  0  0  0  0  0  0
   34.3613   43.6019   -9.7791 O   0  0  0  0  0  0  0  0  0  0  0  0
   33.4354   44.2525  -10.6563 C   0  0  0  0  0  0  0  0  0  0  0  0
   33.1983   43.3960  -11.8710 C   0  0  0  0  0  0  0  0  0  0  0  0
   33.0700   42.0054  -11.7478 C   0  0  0  0  0  0  0  0  0  0  0  0
   32.8436   41.2152  -12.8760 C   0  0  0  0  0  0  0  0  0  0  0  0
   32.7347   41.8056  -14.1342 C   0  0  0  0  0  0  0  0  0  0  0  0
   32.8430   43.1891  -14.2633 C   0  0  0  0  0  0  0  0  0  0  0  0
   33.0707   43.9821  -13.1377 C   0  0  0  0  0  0  0  0  0  0  0  0
   34.6736   40.0105   -6.7831 C   0  0  0  0  0  0  0  0  0  0  0  0
   33.5267   39.2301   -7.3891 C   0  0  0  0  0  0  0  0  0  0  0  0
   33.0398   39.5273   -8.6663 C   0  0  0  0  0  0  0  0  0  0  0  0
   31.9706   38.8087   -9.2066 C   0  0  0  0  0  0  0  0  0  0  0  0
   31.3788   37.7843   -8.4750 C   0  0  0  0  0  0  0  0  0  0  0  0
   31.8529   37.4756   -7.2041 C   0  0  0  0  0  0  0  0  0  0  0  0
   32.9195   38.1949   -6.6627 C   0  0  0  0  0  0  0  0  0  0  0  0
   36.7886   42.2217   -3.3432 C   0  0  0  0  0  0  0  0  0  0  0  0
   37.9559   41.2379   -3.5971 C   0  0  0  0  0  0  0  0  0  0  0  0
   39.0999   41.6306   -3.8277 O   0  0  0  0  0  0  0  0  0  0  0  0
   37.6139   39.9074   -3.5144 N   0  0  0  0  0  0  0  0  0  0  0  0
   36.6904   39.6761   -3.2635 H   0  0  0  0  0  0  0  0  0  0  0  0
   38.5557   38.8195   -3.7810 C   0  0  0  0  0  0  0  0  0  0  0  0
   38.3798   38.3878   -5.2395 C   0  0  0  0  0  0  0  0  0  0  0  0
   39.9881   39.3175   -3.4700 C   0  0  0  0  0  0  0  0  0  0  0  0
   41.1478   38.2534   -3.4719 C   0  0  0  0  0  0  0  0  0  0  0  0
   41.5049   37.8845   -4.9141 C   0  0  0  0  0  0  0  0  0  0  0  0
   42.3664   38.9734   -2.8405 C   0  0  0  0  0  0  0  0  0  0  0  0
   40.7086   37.0412   -2.5714 C   0  0  0  0  0  0  0  0  0  0  0  0
   41.0123   35.5174   -2.8834 C   0  0  0  0  0  0  0  0  0  0  0  0
   40.1834   35.0723   -4.1069 C   0  0  0  0  0  0  0  0  0  0  0  0
   42.4938   35.2708   -3.1664 C   0  0  0  0  0  0  0  0  0  0  0  0
   40.5084   34.7274   -1.6069 C   0  0  0  0  0  0  0  0  0  0  0  0
   39.5584   35.3170   -0.5113 C   0  0  0  0  0  0  0  0  0  0  0  0
   38.5161   36.3089   -1.0416 C   0  0  0  0  0  0  0  0  0  0  0  0
   38.8532   34.2104    0.2988 C   0  0  0  0  0  0  0  0  0  0  0  0
   40.4549   36.0932    0.4902 C   0  0  0  0  0  0  0  0  0  0  0  0
   36.1941   42.0648   -1.9323 C   0  0  0  0  0  0  0  0  0  0  0  0
   37.2078   42.6382    0.3415 C   0  0  0  0  0  0  0  0  0  0  0  0
   36.5239   43.1777   -0.9170 C   0  0  0  0  0  0  0  0  0  0  0  0
   37.4232   44.2275   -1.5800 C   0  0  0  0  0  0  0  0  0  0  0  0
 48 49  1  0
 49 50  1  0
 49 47  1  0
 27 47  1  0
 27  1  1  0
  1  3  1  0
  3  4  2  0
  3  5  1  0
  3  7  1  0
  7 20  1  0
 20 21  1  0
 21 22  2  0
 22 23  1  0
 23 24  2  0
 24 25  1  0
 25 26  2  0
  7  8  1  0
  8  9  1  0
  9 10  2  0
  9 12  1  0
 12 13  1  0
 13 14  1  0
 14 15  2  0
 15 16  1  0
 16 17  2  0
 17 18  1  0
 18 19  2  0
 27 28  1  0
 28 29  2  0
 28 30  1  0
 30 32  1  0
 32 33  1  0
 32 34  1  0
 34 35  1  0
 35 36  1  0
 35 37  1  0
 35 38  1  0
 38 39  1  0
 39 40  1  0
 39 41  1  0
 39 42  1  0
 42 43  1  0
 43 44  1  0
 43 45  1  0
 43 46  1  0
 26 21  1  0
 19 14  1  0
  1  2  1  0
  5  6  1  0
  8 11  1  0
 30 31  1  0
M  END
> <minimizedAffinity>
-9.34785

> <CNNscore>
0.9294118881

> <CNNaffinity>
8.7066183090

> <CNN_VS>
8.0920343399

> <CNNaffinity_variance>
0.1524896473

$$$$



 50 51  0  0  0  0  0  0  0  0999 V2000
   35.8537   41.9677   -4.2826 N   0  0  0  0  0  0  0  0  0  0  0  0
   34.8947   42.2045   -4.0284 H   0  0  0  0  0  0  0  0  0  0  0  0
   36.1448   42.7167   -5.6860 P   0  0  0  0  0  0  0  0  0  0  0  0
   37.5772   43.0692   -5.9455 O   0  0  0  0  0  0  0  0  0  0  0  0
   35.3096   44.0793   -5.5096 O   0  0  0  0  0  0  0  0  0  0  0  0
   35.6950   44.6040   -4.7906 H   0  0  0  0  0  0  0  0  0  0  0  0
   35.3053   41.8525   -7.0589 C   0  0  0  0  0  0  0  0  0  0  0  0
   35.1730   40.4341   -6.7248 N   0  0  0  0  0  0  0  0  0  0  0  0
   35.7215   39.4722   -7.5233 C   0  0  0  0  0  0  0  0  0  0  0  0
   36.0472   39.6267   -8.6904 O   0  0  0  0  0  0  0  0  0  0  0  0
   34.6820   40.1700   -5.9135 H   0  0  0  0  0  0  0  0  0  0  0  0
   35.8539   38.3314   -6.8072 O   0  0  0  0  0  0  0  0  0  0  0  0
   35.4781   37.1268   -7.4839 C   0  0  0  0  0  0  0  0  0  0  0  0
   34.0586   37.2394   -7.9714 C   0  0  0  0  0  0  0  0  0  0  0  0
   33.0125   37.4779   -7.0691 C   0  0  0  0  0  0  0  0  0  0  0  0
   31.6981   37.5883   -7.5261 C   0  0  0  0  0  0  0  0  0  0  0  0
   31.4175   37.4705   -8.8866 C   0  0  0  0  0  0  0  0  0  0  0  0
   32.4537   37.2513   -9.7924 C   0  0  0  0  0  0  0  0  0  0  0  0
   33.7687   37.1390   -9.3390 C   0  0  0  0  0  0  0  0  0  0  0  0
   33.9690   42.4875   -7.4764 C   0  0  0  0  0  0  0  0  0  0  0  0
   33.6414   42.4404   -8.9537 C   0  0  0  0  0  0  0  0  0  0  0  0
   33.8028   43.5645   -9.7702 C   0  0  0  0  0  0  0  0  0  0  0  0
   33.4818   43.5108  -11.1287 C   0  0  0  0  0  0  0  0  0  0  0  0
   32.9977   42.3311  -11.6844 C   0  0  0  0  0  0  0  0  0  0  0  0
   32.8333   41.2040  -10.8856 C   0  0  0  0  0  0  0  0  0  0  0  0
   33.1515   41.2578   -9.5277 C   0  0  0  0  0  0  0  0  0  0  0  0
   36.6625   42.2024   -3.0842 C   0  0  0  0  0  0  0  0  0  0  0  0
   37.9015   41.2782   -3.1593 C   0  0  0  0  0  0  0  0  0  0  0  0
   39.0214   41.7116   -3.4316 O   0  0  0  0  0  0  0  0  0  0  0  0
   37.6503   39.9562   -2.8705 N   0  0  0  0  0  0  0  0  0  0  0  0
   36.7385   39.7011   -2.6006 H   0  0  0  0  0  0  0  0  0  0  0  0
   38.6720   38.9112   -2.9451 C   0  0  0  0  0  0  0  0  0  0  0  0
   38.5001   37.9937   -1.7313 C   0  0  0  0  0  0  0  0  0  0  0  0
   38.5172   38.1627   -4.2912 C   0  0  0  0  0  0  0  0  0  0  0  0
   39.6251   37.1125   -4.6746 C   0  0  0  0  0  0  0  0  0  0  0  0
   39.2688   35.7483   -4.0783 C   0  0  0  0  0  0  0  0  0  0  0  0
   39.5639   36.9967   -6.2189 C   0  0  0  0  0  0  0  0  0  0  0  0
   41.0218   37.6816   -4.2290 C   0  0  0  0  0  0  0  0  0  0  0  0
   42.3255   36.8128   -3.9902 C   0  0  0  0  0  0  0  0  0  0  0  0
   42.4642   36.5046   -2.4842 C   0  0  0  0  0  0  0  0  0  0  0  0
   42.2931   35.4981   -4.7689 C   0  0  0  0  0  0  0  0  0  0  0  0
   43.5272   37.7422   -4.4369 C   0  0  0  0  0  0  0  0  0  0  0  0
   44.4608   38.5259   -3.4548 C   0  0  0  0  0  0  0  0  0  0  0  0
   44.7241   39.9825   -3.8552 C   0  0  0  0  0  0  0  0  0  0  0  0
   43.9453   38.4744   -2.0023 C   0  0  0  0  0  0  0  0  0  0  0  0
   45.8320   37.7985   -3.4619 C   0  0  0  0  0  0  0  0  0  0  0  0
   35.7873   41.9007   -1.8547 C   0  0  0  0  0  0  0  0  0  0  0  0
   36.9732   42.0118    0.4054 C   0  0  0  0  0  0  0  0  0  0  0  0
   36.0637   42.7374   -0.5891 C   0  0  0  0  0  0  0  0  0  0  0  0
   36.7005   44.0742   -0.9862 C   0  0  0  0  0  0  0  0  0  0  0  0
 48 49  1  0
 49 50  1  0
 49 47  1  0
 27 47  1  0
 27  1  1  0
  1  3  1  0
  3  4  2  0
  3  5  1  0
  3  7  1  0
  7 20  1  0
 20 21  1  0
 21 22  2  0
 22 23  1  0
 23 24  2  0
 24 25  1  0
 25 26  2  0
  7  8  1  0
  8  9  1  0
  9 10  2  0
  9 12  1  0
 12 13  1  0
 13 14  1  0
 14 15  2  0
 15 16  1  0
 16 17  2  0
 17 18  1  0
 18 19  2  0
 27 28  1  0
 28 29  2  0
 28 30  1  0
 30 32  1  0
 32 33  1  0
 32 34  1  0
 34 35  1  0
 35 36  1  0
 35 37  1  0
 35 38  1  0
 38 39  1  0
 39 40  1  0
 39 41  1  0
 39 42  1  0
 42 43  1  0
 43 44  1  0
 43 45  1  0
 43 46  1  0
 26 21  1  0
 19 14  1  0
  1  2  1  0
  5  6  1  0
  8 11  1  0
 30 31  1  0
M  END
> <minimizedAffinity>
-8.34528

> <CNNscore>
0.8817186356

> <CNNaffinity>
8.6116456985

> <CNN_VS>
7.5930485725

> <CNNaffinity_variance>
0.5518909097

$$$$



 50 51  0  0  0  0  0  0  0  0999 V2000
   35.7800   41.5907   -4.5286 N   0  0  0  0  0  0  0  0  0  0  0  0
   34.8534   41.6868   -4.1132 H   0  0  0  0  0  0  0  0  0  0  0  0
   35.6644   42.1857   -6.0280 P   0  0  0  0  0  0  0  0  0  0  0  0
   36.9582   42.3248   -6.7696 O   0  0  0  0  0  0  0  0  0  0  0  0
   35.0754   43.6563   -5.7524 O   0  0  0  0  0  0  0  0  0  0  0  0
   35.7274   44.1785   -5.2593 H   0  0  0  0  0  0  0  0  0  0  0  0
   34.3362   41.3383   -6.9521 C   0  0  0  0  0  0  0  0  0  0  0  0
   34.3146   41.8361   -8.3279 N   0  0  0  0  0  0  0  0  0  0  0  0
   33.6631   42.9934   -8.6441 C   0  0  0  0  0  0  0  0  0  0  0  0
   32.7959   43.5219   -7.9653 O   0  0  0  0  0  0  0  0  0  0  0  0
   34.7760   41.3297   -9.0349 H   0  0  0  0  0  0  0  0  0  0  0  0
   34.1438   43.4595   -9.8203 O   0  0  0  0  0  0  0  0  0  0  0  0
   33.6222   42.8314  -10.9965 C   0  0  0  0  0  0  0  0  0  0  0  0
   33.4341   43.8587  -12.0804 C   0  0  0  0  0  0  0  0  0  0  0  0
   33.6191   45.2217  -11.8096 C   0  0  0  0  0  0  0  0  0  0  0  0
   33.4502   46.1707  -12.8192 C   0  0  0  0  0  0  0  0  0  0  0  0
   33.1041   45.7679  -14.1082 C   0  0  0  0  0  0  0  0  0  0  0  0
   32.9358   44.4135  -14.3903 C   0  0  0  0  0  0  0  0  0  0  0  0
   33.1026   43.4621  -13.3831 C   0  0  0  0  0  0  0  0  0  0  0  0
   34.4024   39.8041   -6.8808 C   0  0  0  0  0  0  0  0  0  0  0  0
   33.2482   39.0569   -7.5141 C   0  0  0  0  0  0  0  0  0  0  0  0
   32.7595   39.4089   -8.7765 C   0  0  0  0  0  0  0  0  0  0  0  0
   31.6837   38.7203   -9.3420 C   0  0  0  0  0  0  0  0  0  0  0  0
   31.0869   37.6712   -8.6507 C   0  0  0  0  0  0  0  0  0  0  0  0
   31.5626   37.3079   -7.3948 C   0  0  0  0  0  0  0  0  0  0  0  0
   32.6359   37.9973   -6.8282 C   0  0  0  0  0  0  0  0  0  0  0  0
   36.7250   42.1214   -3.5434 C   0  0  0  0  0  0  0  0  0  0  0  0
   37.9651   41.1958   -3.5287 C   0  0  0  0  0  0  0  0  0  0  0  0
   39.1074   41.6396   -3.4086 O   0  0  0  0  0  0  0  0  0  0  0  0
   37.6808   39.8530   -3.6301 N   0  0  0  0  0  0  0  0  0  0  0  0
   36.7367   39.5753   -3.6594 H   0  0  0  0  0  0  0  0  0  0  0  0
   38.7130   38.8178   -3.6965 C   0  0  0  0  0  0  0  0  0  0  0  0
   39.9816   39.4506   -4.2752 C   0  0  0  0  0  0  0  0  0  0  0  0
   38.9243   38.2378   -2.2769 C   0  0  0  0  0  0  0  0  0  0  0  0
   39.6615   36.8524   -2.1563 C   0  0  0  0  0  0  0  0  0  0  0  0
   39.4636   36.0506   -3.4453 C   0  0  0  0  0  0  0  0  0  0  0  0
   41.1668   37.1983   -2.0277 C   0  0  0  0  0  0  0  0  0  0  0  0
   39.1571   36.1354   -0.8507 C   0  0  0  0  0  0  0  0  0  0  0  0
   39.9489   35.0093   -0.0656 C   0  0  0  0  0  0  0  0  0  0  0  0
   41.0081   34.3856   -0.9990 C   0  0  0  0  0  0  0  0  0  0  0  0
   40.6414   35.5550    1.1827 C   0  0  0  0  0  0  0  0  0  0  0  0
   38.8633   33.9112    0.2853 C   0  0  0  0  0  0  0  0  0  0  0  0
   38.2442   32.9085   -0.7451 C   0  0  0  0  0  0  0  0  0  0  0  0
   39.2508   32.3179   -1.7399 C   0  0  0  0  0  0  0  0  0  0  0  0
   37.4741   31.7674   -0.0503 C   0  0  0  0  0  0  0  0  0  0  0  0
   37.2005   33.7038   -1.5742 C   0  0  0  0  0  0  0  0  0  0  0  0
   36.0148   42.1616   -2.1786 C   0  0  0  0  0  0  0  0  0  0  0  0
   37.2148   42.6948    0.0128 C   0  0  0  0  0  0  0  0  0  0  0  0
   36.4680   43.2614   -1.1972 C   0  0  0  0  0  0  0  0  0  0  0  0
   37.3651   44.2656   -1.9300 C   0  0  0  0  0  0  0  0  0  0  0  0
 48 49  1  0
 49 50  1  0
 49 47  1  0
 27 47  1  0
 27  1  1  0
  1  3  1  0
  3  4  2  0
  3  5  1  0
  3  7  1  0
  7 20  1  0
 20 21  1  0
 21 22  2  0
 22 23  1  0
 23 24  2  0
 24 25  1  0
 25 26  2  0
  7  8  1  0
  8  9  1  0
  9 10  2  0
  9 12  1  0
 12 13  1  0
 13 14  1  0
 14 15  2  0
 15 16  1  0
 16 17  2  0
 17 18  1  0
 18 19  2  0
 27 28  1  0
 28 29  2  0
 28 30  1  0
 30 32  1  0
 32 33  1  0
 32 34  1  0
 34 35  1  0
 35 36  1  0
 35 37  1  0
 35 38  1  0
 38 39  1  0
 39 40  1  0
 39 41  1  0
 39 42  1  0
 42 43  1  0
 43 44  1  0
 43 45  1  0
 43 46  1  0
 26 21  1  0
 19 14  1  0
  1  2  1  0
  5  6  1  0
  8 11  1  0
 30 31  1  0
M  END
> <minimizedAffinity>
-9.14737

> <CNNscore>
0.8726355433

> <CNNaffinity>
8.3651247025

> <CNN_VS>
7.2997050285

> <CNNaffinity_variance>
0.2638083398

$$$$



 50 51  0  0  0  0  0  0  0  0999 V2000
   35.6306   41.8601   -4.3720 N   0  0  0  0  0  0  0  0  0  0  0  0
   34.6913   42.0941   -4.0504 H   0  0  0  0  0  0  0  0  0  0  0  0
   35.7109   42.3417   -5.9138 P   0  0  0  0  0  0  0  0  0  0  0  0
   37.0853   42.3816   -6.5076 O   0  0  0  0  0  0  0  0  0  0  0  0
   35.1550   43.8474   -5.8161 O   0  0  0  0  0  0  0  0  0  0  0  0
   35.7674   44.3846   -5.2896 H   0  0  0  0  0  0  0  0  0  0  0  0
   34.4631   41.4692   -6.9226 C   0  0  0  0  0  0  0  0  0  0  0  0
   34.5097   41.9802   -8.2928 N   0  0  0  0  0  0  0  0  0  0  0  0
   33.7855   43.0791   -8.6558 C   0  0  0  0  0  0  0  0  0  0  0  0
   32.8221   43.5202   -8.0482 O   0  0  0  0  0  0  0  0  0  0  0  0
   35.0707   41.5255   -8.9620 H   0  0  0  0  0  0  0  0  0  0  0  0
   34.3173   43.6006   -9.7859 O   0  0  0  0  0  0  0  0  0  0  0  0
   33.3938   44.2592  -10.6597 C   0  0  0  0  0  0  0  0  0  0  0  0
   33.1554   43.4109  -11.8799 C   0  0  0  0  0  0  0  0  0  0  0  0
   33.0663   43.9987  -13.1496 C   0  0  0  0  0  0  0  0  0  0  0  0
   32.8518   43.2078  -14.2796 C   0  0  0  0  0  0  0  0  0  0  0  0
   32.7330   41.8245  -14.1540 C   0  0  0  0  0  0  0  0  0  0  0  0
   32.8382   41.2302  -12.8977 C   0  0  0  0  0  0  0  0  0  0  0  0
   33.0514   42.0179  -11.7656 C   0  0  0  0  0  0  0  0  0  0  0  0
   34.5661   39.9366   -6.8606 C   0  0  0  0  0  0  0  0  0  0  0  0
   33.3974   39.1661   -7.4369 C   0  0  0  0  0  0  0  0  0  0  0  0
   32.7984   38.1179   -6.7305 C   0  0  0  0  0  0  0  0  0  0  0  0
   31.7305   37.4055   -7.2813 C   0  0  0  0  0  0  0  0  0  0  0  0
   31.2498   37.7360   -8.5441 C   0  0  0  0  0  0  0  0  0  0  0  0
   31.8337   38.7772   -9.2585 C   0  0  0  0  0  0  0  0  0  0  0  0
   32.9025   39.4876   -8.7096 C   0  0  0  0  0  0  0  0  0  0  0  0
   36.5485   42.3576   -3.3446 C   0  0  0  0  0  0  0  0  0  0  0  0
   37.8441   41.5144   -3.4172 C   0  0  0  0  0  0  0  0  0  0  0  0
   38.9467   42.0297   -3.6043 O   0  0  0  0  0  0  0  0  0  0  0  0
   37.6616   40.1635   -3.2277 N   0  0  0  0  0  0  0  0  0  0  0  0
   36.7557   39.8380   -3.0210 H   0  0  0  0  0  0  0  0  0  0  0  0
   38.7480   39.1873   -3.3185 C   0  0  0  0  0  0  0  0  0  0  0  0
   38.7348   38.3442   -2.0403 C   0  0  0  0  0  0  0  0  0  0  0  0
   38.5471   38.3409   -4.5990 C   0  0  0  0  0  0  0  0  0  0  0  0
   39.6273   37.2439   -4.9262 C   0  0  0  0  0  0  0  0  0  0  0  0
   39.2934   35.9529   -4.1742 C   0  0  0  0  0  0  0  0  0  0  0  0
   39.4865   36.9695   -6.4451 C   0  0  0  0  0  0  0  0  0  0  0  0
   41.0486   37.8398   -4.6129 C   0  0  0  0  0  0  0  0  0  0  0  0
   42.3026   36.9997   -4.1301 C   0  0  0  0  0  0  0  0  0  0  0  0
   42.5195   37.2296   -2.6194 C   0  0  0  0  0  0  0  0  0  0  0  0
   42.1285   35.5034   -4.3884 C   0  0  0  0  0  0  0  0  0  0  0  0
   43.5329   37.6036   -4.9232 C   0  0  0  0  0  0  0  0  0  0  0  0
   44.7587   38.3156   -4.2593 C   0  0  0  0  0  0  0  0  0  0  0  0
   45.3545   37.5679   -3.0603 C   0  0  0  0  0  0  0  0  0  0  0  0
   45.8717   38.6234   -5.2812 C   0  0  0  0  0  0  0  0  0  0  0  0
   44.2519   39.6853   -3.7335 C   0  0  0  0  0  0  0  0  0  0  0  0
   35.8481   42.2288   -1.9802 C   0  0  0  0  0  0  0  0  0  0  0  0
   37.2069   42.6242    0.1468 C   0  0  0  0  0  0  0  0  0  0  0  0
   36.2659   43.2387   -0.8923 C   0  0  0  0  0  0  0  0  0  0  0  0
   36.9437   44.4479   -1.5472 C   0  0  0  0  0  0  0  0  0  0  0  0
 48 49  1  0
 49 50  1  0
 49 47  1  0
 27 47  1  0
 27  1  1  0
  1  3  1  0
  3  4  2  0
  3  5  1  0
  3  7  1  0
  7 20  1  0
 20 21  1  0
 21 22  2  0
 22 23  1  0
 23 24  2  0
 24 25  1  0
 25 26  2  0
  7  8  1  0
  8  9  1  0
  9 10  2  0
  9 12  1  0
 12 13  1  0
 13 14  1  0
 14 15  2  0
 15 16  1  0
 16 17  2  0
 17 18  1  0
 18 19  2  0
 27 28  1  0
 28 29  2  0
 28 30  1  0
 30 32  1  0
 32 33  1  0
 32 34  1  0
 34 35  1  0
 35 36  1  0
 35 37  1  0
 35 38  1  0
 38 39  1  0
 39 40  1  0
 39 41  1  0
 39 42  1  0
 42 43  1  0
 43 44  1  0
 43 45  1  0
 43 46  1  0
 26 21  1  0
 19 14  1  0
  1  2  1  0
  5  6  1  0
  8 11  1  0
 30 31  1  0
M  END
> <minimizedAffinity>
-9.48866

> <CNNscore>
0.8661806583

> <CNNaffinity>
8.5366249084

> <CNN_VS>
7.3942594528

> <CNNaffinity_variance>
0.2122091055

$$$$



 50 51  0  0  0  0  0  0  0  0999 V2000
   35.9266   41.6658   -4.6401 N   0  0  0  0  0  0  0  0  0  0  0  0
   35.0150   41.6849   -4.1828 H   0  0  0  0  0  0  0  0  0  0  0  0
   35.6886   42.2201   -6.1406 P   0  0  0  0  0  0  0  0  0  0  0  0
   36.9271   42.4267   -6.9572 O   0  0  0  0  0  0  0  0  0  0  0  0
   35.0207   43.6551   -5.8577 O   0  0  0  0  0  0  0  0  0  0  0  0
   35.6634   44.2287   -5.4119 H   0  0  0  0  0  0  0  0  0  0  0  0
   34.3695   41.2693   -6.9724 C   0  0  0  0  0  0  0  0  0  0  0  0
   34.2499   41.7236   -8.3580 N   0  0  0  0  0  0  0  0  0  0  0  0
   33.5876   42.8780   -8.6622 C   0  0  0  0  0  0  0  0  0  0  0  0
   32.7786   43.4379   -7.9383 O   0  0  0  0  0  0  0  0  0  0  0  0
   34.6524   41.1898   -9.0807 H   0  0  0  0  0  0  0  0  0  0  0  0
   33.9836   43.3011   -9.8853 O   0  0  0  0  0  0  0  0  0  0  0  0
   33.2214   44.3751  -10.4472 C   0  0  0  0  0  0  0  0  0  0  0  0
   33.1826   44.2411  -11.9459 C   0  0  0  0  0  0  0  0  0  0  0  0
   33.5282   45.3238  -12.7668 C   0  0  0  0  0  0  0  0  0  0  0  0
   33.4974   45.1934  -14.1563 C   0  0  0  0  0  0  0  0  0  0  0  0
   33.1302   43.9809  -14.7380 C   0  0  0  0  0  0  0  0  0  0  0  0
   32.8025   42.8942  -13.9292 C   0  0  0  0  0  0  0  0  0  0  0  0
   32.8310   43.0213  -12.5397 C   0  0  0  0  0  0  0  0  0  0  0  0
   34.5310   39.7444   -6.8633 C   0  0  0  0  0  0  0  0  0  0  0  0
   33.7063   38.9162   -7.8255 C   0  0  0  0  0  0  0  0  0  0  0  0
   34.1304   38.6915   -9.1393 C   0  0  0  0  0  0  0  0  0  0  0  0
   33.3515   37.9380  -10.0208 C   0  0  0  0  0  0  0  0  0  0  0  0
   32.1411   37.4001   -9.5960 C   0  0  0  0  0  0  0  0  0  0  0  0
   31.7065   37.6132   -8.2917 C   0  0  0  0  0  0  0  0  0  0  0  0
   32.4831   38.3682   -7.4113 C   0  0  0  0  0  0  0  0  0  0  0  0
   36.8630   42.2983   -3.7081 C   0  0  0  0  0  0  0  0  0  0  0  0
   38.0162   41.3007   -3.4438 C   0  0  0  0  0  0  0  0  0  0  0  0
   39.1860   41.5704   -3.7179 O   0  0  0  0  0  0  0  0  0  0  0  0
   37.6288   40.1172   -2.8579 N   0  0  0  0  0  0  0  0  0  0  0  0
   36.6821   40.0042   -2.6125 H   0  0  0  0  0  0  0  0  0  0  0  0
   38.5553   39.0185   -2.5817 C   0  0  0  0  0  0  0  0  0  0  0  0
   37.9683   38.1792   -1.4434 C   0  0  0  0  0  0  0  0  0  0  0  0
   38.7616   38.2061   -3.8831 C   0  0  0  0  0  0  0  0  0  0  0  0
   40.2082   37.6637   -4.1839 C   0  0  0  0  0  0  0  0  0  0  0  0
   40.2706   37.1339   -5.6189 C   0  0  0  0  0  0  0  0  0  0  0  0
   41.1388   38.8990   -4.0831 C   0  0  0  0  0  0  0  0  0  0  0  0
   40.5825   36.6117   -3.0765 C   0  0  0  0  0  0  0  0  0  0  0  0
   41.9763   35.8662   -2.9620 C   0  0  0  0  0  0  0  0  0  0  0  0
   41.9126   34.5417   -3.7518 C   0  0  0  0  0  0  0  0  0  0  0  0
   43.1294   36.7136   -3.4986 C   0  0  0  0  0  0  0  0  0  0  0  0
   42.1424   35.5381   -1.4218 C   0  0  0  0  0  0  0  0  0  0  0  0
   43.5156   35.3873   -0.6856 C   0  0  0  0  0  0  0  0  0  0  0  0
   44.2464   36.7104   -0.4273 C   0  0  0  0  0  0  0  0  0  0  0  0
   43.3798   34.6053    0.6367 C   0  0  0  0  0  0  0  0  0  0  0  0
   44.4291   34.5371   -1.6087 C   0  0  0  0  0  0  0  0  0  0  0  0
   36.0909   42.6462   -2.4230 C   0  0  0  0  0  0  0  0  0  0  0  0
   36.7961   44.7471   -1.1519 C   0  0  0  0  0  0  0  0  0  0  0  0
   36.9175   43.2249   -1.2568 C   0  0  0  0  0  0  0  0  0  0  0  0
   36.4676   42.5820    0.0602 C   0  0  0  0  0  0  0  0  0  0  0  0
 48 49  1  0
 49 50  1  0
 49 47  1  0
 27 47  1  0
 27  1  1  0
  1  3  1  0
  3  4  2  0
  3  5  1  0
  3  7  1  0
  7 20  1  0
 20 21  1  0
 21 22  2  0
 22 23  1  0
 23 24  2  0
 24 25  1  0
 25 26  2  0
  7  8  1  0
  8  9  1  0
  9 10  2  0
  9 12  1  0
 12 13  1  0
 13 14  1  0
 14 15  2  0
 15 16  1  0
 16 17  2  0
 17 18  1  0
 18 19  2  0
 27 28  1  0
 28 29  2  0
 28 30  1  0
 30 32  1  0
 32 33  1  0
 32 34  1  0
 34 35  1  0
 35 36  1  0
 35 37  1  0
 35 38  1  0
 38 39  1  0
 39 40  1  0
 39 41  1  0
 39 42  1  0
 42 43  1  0
 43 44  1  0
 43 45  1  0
 43 46  1  0
 26 21  1  0
 19 14  1  0
  1  2  1  0
  5  6  1  0
  8 11  1  0
 30 31  1  0
M  END
> <minimizedAffinity>
-8.30003

> <CNNscore>
0.8549787998

> <CNNaffinity>
8.5193729401

> <CNN_VS>
7.2838830948

> <CNNaffinity_variance>
0.0717661157

$$$$



 50 51  0  0  0  0  0  0  0  0999 V2000
   35.7687   41.7817   -4.5204 N   0  0  0  0  0  0  0  0  0  0  0  0
   34.8911   42.0435   -4.0712 H   0  0  0  0  0  0  0  0  0  0  0  0
   35.6596   42.2914   -6.0513 P   0  0  0  0  0  0  0  0  0  0  0  0
   36.9577   42.3990   -6.7907 O   0  0  0  0  0  0  0  0  0  0  0  0
   35.0577   43.7704   -5.8622 O   0  0  0  0  0  0  0  0  0  0  0  0
   35.7022   44.3243   -5.3946 H   0  0  0  0  0  0  0  0  0  0  0  0
   34.3445   41.3834   -6.9359 C   0  0  0  0  0  0  0  0  0  0  0  0
   34.3081   41.8268   -8.3298 N   0  0  0  0  0  0  0  0  0  0  0  0
   33.6521   42.9704   -8.6844 C   0  0  0  0  0  0  0  0  0  0  0  0
   32.7914   43.5245   -8.0178 O   0  0  0  0  0  0  0  0  0  0  0  0
   34.7627   41.2934   -9.0212 H   0  0  0  0  0  0  0  0  0  0  0  0
   34.1201   43.3904   -9.8829 O   0  0  0  0  0  0  0  0  0  0  0  0
   33.5162   42.7852  -11.0314 C   0  0  0  0  0  0  0  0  0  0  0  0
   33.3805   43.8043  -12.1307 C   0  0  0  0  0  0  0  0  0  0  0  0
   33.6155   45.1627  -11.8754 C   0  0  0  0  0  0  0  0  0  0  0  0
   33.4950   46.1039  -12.8992 C   0  0  0  0  0  0  0  0  0  0  0  0
   33.1480   45.6976  -14.1868 C   0  0  0  0  0  0  0  0  0  0  0  0
   32.9302   44.3471  -14.4533 C   0  0  0  0  0  0  0  0  0  0  0  0
   33.0484   43.4035  -13.4319 C   0  0  0  0  0  0  0  0  0  0  0  0
   34.4405   39.8547   -6.8053 C   0  0  0  0  0  0  0  0  0  0  0  0
   33.3127   39.0603   -7.4289 C   0  0  0  0  0  0  0  0  0  0  0  0
   32.8235   39.3691   -8.7024 C   0  0  0  0  0  0  0  0  0  0  0  0
   31.7719   38.6370   -9.2589 C   0  0  0  0  0  0  0  0  0  0  0  0
   31.2003   37.5873   -8.5474 C   0  0  0  0  0  0  0  0  0  0  0  0
   31.6770   37.2668   -7.2803 C   0  0  0  0  0  0  0  0  0  0  0  0
   32.7260   37.9996   -6.7228 C   0  0  0  0  0  0  0  0  0  0  0  0
   36.8353   42.2240   -3.6192 C   0  0  0  0  0  0  0  0  0  0  0  0
   38.0082   41.2223   -3.7444 C   0  0  0  0  0  0  0  0  0  0  0  0
   39.1811   41.5949   -3.7850 O   0  0  0  0  0  0  0  0  0  0  0  0
   37.6323   39.8987   -3.7758 N   0  0  0  0  0  0  0  0  0  0  0  0
   36.6775   39.6808   -3.6751 H   0  0  0  0  0  0  0  0  0  0  0  0
   38.5822   38.7995   -3.9517 C   0  0  0  0  0  0  0  0  0  0  0  0
   38.3894   38.2278   -5.3590 C   0  0  0  0  0  0  0  0  0  0  0  0
   40.0134   39.3391   -3.7130 C   0  0  0  0  0  0  0  0  0  0  0  0
   41.1711   38.2871   -3.5395 C   0  0  0  0  0  0  0  0  0  0  0  0
   40.6456   37.0641   -2.7832 C   0  0  0  0  0  0  0  0  0  0  0  0
   41.5422   37.8443   -4.9777 C   0  0  0  0  0  0  0  0  0  0  0  0
   42.3948   39.0052   -2.8612 C   0  0  0  0  0  0  0  0  0  0  0  0
   43.9044   38.5369   -2.9763 C   0  0  0  0  0  0  0  0  0  0  0  0
   44.7498   39.6826   -3.5721 C   0  0  0  0  0  0  0  0  0  0  0  0
   44.4888   38.1361   -1.6222 C   0  0  0  0  0  0  0  0  0  0  0  0
   43.8838   37.3283   -3.9993 C   0  0  0  0  0  0  0  0  0  0  0  0
   45.0777   36.9266   -4.9285 C   0  0  0  0  0  0  0  0  0  0  0  0
   46.4611   37.0697   -4.2826 C   0  0  0  0  0  0  0  0  0  0  0  0
   44.9162   35.5008   -5.4935 C   0  0  0  0  0  0  0  0  0  0  0  0
   45.0435   37.8895   -6.1454 C   0  0  0  0  0  0  0  0  0  0  0  0
   36.2616   42.2701   -2.1918 C   0  0  0  0  0  0  0  0  0  0  0  0
   37.1307   44.4424   -1.1660 C   0  0  0  0  0  0  0  0  0  0  0  0
   37.1533   42.9130   -1.1104 C   0  0  0  0  0  0  0  0  0  0  0  0
   36.6985   42.4430    0.2762 C   0  0  0  0  0  0  0  0  0  0  0  0
 48 49  1  0
 49 50  1  0
 49 47  1  0
 27 47  1  0
 27  1  1  0
  1  3  1  0
  3  4  2  0
  3  5  1  0
  3  7  1  0
  7 20  1  0
 20 21  1  0
 21 22  2  0
 22 23  1  0
 23 24  2  0
 24 25  1  0
 25 26  2  0
  7  8  1  0
  8  9  1  0
  9 10  2  0
  9 12  1  0
 12 13  1  0
 13 14  1  0
 14 15  2  0
 15 16  1  0
 16 17  2  0
 17 18  1  0
 18 19  2  0
 27 28  1  0
 28 29  2  0
 28 30  1  0
 30 32  1  0
 32 33  1  0
 32 34  1  0
 34 35  1  0
 35 36  1  0
 35 37  1  0
 35 38  1  0
 38 39  1  0
 39 40  1  0
 39 41  1  0
 39 42  1  0
 42 43  1  0
 43 44  1  0
 43 45  1  0
 43 46  1  0
 26 21  1  0
 19 14  1  0
  1  2  1  0
  5  6  1  0
  8 11  1  0
 30 31  1  0
M  END
> <minimizedAffinity>
-9.58810

> <CNNscore>
0.8351019621

> <CNNaffinity>
8.1915864944

> <CNN_VS>
6.8408098221

> <CNNaffinity_variance>
0.2696540654

$$$$



 50 51  0  0  0  0  0  0  0  0999 V2000
   35.8706   42.0334   -4.2803 N   0  0  0  0  0  0  0  0  0  0  0  0
   35.1172   42.5788   -3.8616 H   0  0  0  0  0  0  0  0  0  0  0  0
   35.8976   42.4330   -5.8472 P   0  0  0  0  0  0  0  0  0  0  0  0
   37.2587   42.6304   -6.4404 O   0  0  0  0  0  0  0  0  0  0  0  0
   35.1367   43.8494   -5.8373 O   0  0  0  0  0  0  0  0  0  0  0  0
   35.6633   44.4959   -5.3418 H   0  0  0  0  0  0  0  0  0  0  0  0
   34.7930   41.3388   -6.8057 C   0  0  0  0  0  0  0  0  0  0  0  0
   34.7322   41.8099   -8.1896 N   0  0  0  0  0  0  0  0  0  0  0  0
   33.8827   42.8158   -8.5507 C   0  0  0  0  0  0  0  0  0  0  0  0
   32.9025   43.1724   -7.9150 O   0  0  0  0  0  0  0  0  0  0  0  0
   35.3116   41.3960   -8.8695 H   0  0  0  0  0  0  0  0  0  0  0  0
   34.3122   43.3553   -9.7153 O   0  0  0  0  0  0  0  0  0  0  0  0
   33.4463   44.3323  -10.3032 C   0  0  0  0  0  0  0  0  0  0  0  0
   33.3145   44.0720  -11.7797 C   0  0  0  0  0  0  0  0  0  0  0  0
   32.9380   42.8056  -12.2487 C   0  0  0  0  0  0  0  0  0  0  0  0
   32.8104   42.5700  -13.6187 C   0  0  0  0  0  0  0  0  0  0  0  0
   33.0487   43.5968  -14.5311 C   0  0  0  0  0  0  0  0  0  0  0  0
   33.4058   44.8635  -14.0726 C   0  0  0  0  0  0  0  0  0  0  0  0
   33.5356   45.1023  -12.7037 C   0  0  0  0  0  0  0  0  0  0  0  0
   35.1470   39.8462   -6.7056 C   0  0  0  0  0  0  0  0  0  0  0  0
   34.1536   38.8829   -7.3197 C   0  0  0  0  0  0  0  0  0  0  0  0
   32.9861   38.5136   -6.6438 C   0  0  0  0  0  0  0  0  0  0  0  0
   32.0859   37.6117   -7.2162 C   0  0  0  0  0  0  0  0  0  0  0  0
   32.3441   37.0714   -8.4717 C   0  0  0  0  0  0  0  0  0  0  0  0
   33.5002   37.4302   -9.1574 C   0  0  0  0  0  0  0  0  0  0  0  0
   34.4012   38.3294   -8.5848 C   0  0  0  0  0  0  0  0  0  0  0  0
   37.0327   42.2055   -3.4054 C   0  0  0  0  0  0  0  0  0  0  0  0
   37.6652   40.8117   -3.1768 C   0  0  0  0  0  0  0  0  0  0  0  0
   37.7901   40.3303   -2.0503 O   0  0  0  0  0  0  0  0  0  0  0  0
   38.0420   40.1564   -4.3268 N   0  0  0  0  0  0  0  0  0  0  0  0
   37.8505   40.5832   -5.1930 H   0  0  0  0  0  0  0  0  0  0  0  0
   38.7136   38.8561   -4.3252 C   0  0  0  0  0  0  0  0  0  0  0  0
   38.2133   38.0635   -5.5360 C   0  0  0  0  0  0  0  0  0  0  0  0
   40.2437   39.0893   -4.3498 C   0  0  0  0  0  0  0  0  0  0  0  0
   41.1354   38.1849   -3.4201 C   0  0  0  0  0  0  0  0  0  0  0  0
   42.2813   39.0172   -2.8390 C   0  0  0  0  0  0  0  0  0  0  0  0
   40.2089   37.7559   -2.2540 C   0  0  0  0  0  0  0  0  0  0  0  0
   41.5888   36.9241   -4.2435 C   0  0  0  0  0  0  0  0  0  0  0  0
   42.8198   35.9940   -3.8817 C   0  0  0  0  0  0  0  0  0  0  0  0
   42.7313   35.5858   -2.3959 C   0  0  0  0  0  0  0  0  0  0  0  0
   42.8635   34.7335   -4.7450 C   0  0  0  0  0  0  0  0  0  0  0  0
   44.0987   36.9045   -4.0889 C   0  0  0  0  0  0  0  0  0  0  0  0
   44.9191   36.9999   -5.4186 C   0  0  0  0  0  0  0  0  0  0  0  0
   45.9101   35.8502   -5.6373 C   0  0  0  0  0  0  0  0  0  0  0  0
   44.0052   37.1361   -6.6533 C   0  0  0  0  0  0  0  0  0  0  0  0
   45.7515   38.3076   -5.3400 C   0  0  0  0  0  0  0  0  0  0  0  0
   36.5474   42.8448   -2.0923 C   0  0  0  0  0  0  0  0  0  0  0  0
   37.5556   45.0163   -1.2007 C   0  0  0  0  0  0  0  0  0  0  0  0
   37.6266   43.4873   -1.1976 C   0  0  0  0  0  0  0  0  0  0  0  0
   37.4787   42.9695    0.2378 C   0  0  0  0  0  0  0  0  0  0  0  0
 48 49  1  0
 49 50  1  0
 49 47  1  0
 27 47  1  0
 27  1  1  0
  1  3  1  0
  3  4  2  0
  3  5  1  0
  3  7  1  0
  7 20  1  0
 20 21  1  0
 21 22  2  0
 22 23  1  0
 23 24  2  0
 24 25  1  0
 25 26  2  0
  7  8  1  0
  8  9  1  0
  9 10  2  0
  9 12  1  0
 12 13  1  0
 13 14  1  0
 14 15  2  0
 15 16  1  0
 16 17  2  0
 17 18  1  0
 18 19  2  0
 27 28  1  0
 28 29  2  0
 28 30  1  0
 30 32  1  0
 32 33  1  0
 32 34  1  0
 34 35  1  0
 35 36  1  0
 35 37  1  0
 35 38  1  0
 38 39  1  0
 39 40  1  0
 39 41  1  0
 39 42  1  0
 42 43  1  0
 43 44  1  0
 43 45  1  0
 43 46  1  0
 26 21  1  0
 19 14  1  0
  1  2  1  0
  5  6  1  0
  8 11  1  0
 30 31  1  0
M  END
> <minimizedAffinity>
-8.66920

> <CNNscore>
0.7464552522

> <CNNaffinity>
8.0091724396

> <CNN_VS>
5.9784889221

> <CNNaffinity_variance>
0.1772946566

$$$$



 50 51  0  0  0  0  0  0  0  0999 V2000
   36.0550   41.4098   -4.8706 N   0  0  0  0  0  0  0  0  0  0  0  0
   35.2057   41.3670   -4.3074 H   0  0  0  0  0  0  0  0  0  0  0  0
   35.6619   42.2158   -6.2164 P   0  0  0  0  0  0  0  0  0  0  0  0
   36.8081   42.5835   -7.1076 O   0  0  0  0  0  0  0  0  0  0  0  0
   35.0302   43.5672   -5.6163 O   0  0  0  0  0  0  0  0  0  0  0  0
   35.7174   44.0639   -5.1452 H   0  0  0  0  0  0  0  0  0  0  0  0
   34.2608   41.4046   -7.0619 C   0  0  0  0  0  0  0  0  0  0  0  0
   34.1840   41.8907   -8.4398 N   0  0  0  0  0  0  0  0  0  0  0  0
   33.5466   43.0612   -8.7354 C   0  0  0  0  0  0  0  0  0  0  0  0
   32.7271   43.6173   -8.0203 O   0  0  0  0  0  0  0  0  0  0  0  0
   34.5975   41.3667   -9.1635 H   0  0  0  0  0  0  0  0  0  0  0  0
   33.9804   43.5048   -9.9382 O   0  0  0  0  0  0  0  0  0  0  0  0
   33.1839   44.5274  -10.5466 C   0  0  0  0  0  0  0  0  0  0  0  0
   33.1847   44.3504  -12.0413 C   0  0  0  0  0  0  0  0  0  0  0  0
   32.7928   43.1325  -12.6144 C   0  0  0  0  0  0  0  0  0  0  0  0
   32.7886   42.9746  -14.0014 C   0  0  0  0  0  0  0  0  0  0  0  0
   33.1666   44.0318  -14.8278 C   0  0  0  0  0  0  0  0  0  0  0  0
   33.5404   45.2516  -14.2669 C   0  0  0  0  0  0  0  0  0  0  0  0
   33.5471   45.4127  -12.8806 C   0  0  0  0  0  0  0  0  0  0  0  0
   34.2807   39.8697   -6.9780 C   0  0  0  0  0  0  0  0  0  0  0  0
   34.6334   39.1368   -8.2548 C   0  0  0  0  0  0  0  0  0  0  0  0
   33.6426   38.7059   -9.1431 C   0  0  0  0  0  0  0  0  0  0  0  0
   33.9820   38.0171  -10.3100 C   0  0  0  0  0  0  0  0  0  0  0  0
   35.3165   37.7540  -10.6009 C   0  0  0  0  0  0  0  0  0  0  0  0
   36.3137   38.1777   -9.7283 C   0  0  0  0  0  0  0  0  0  0  0  0
   35.9750   38.8637   -8.5608 C   0  0  0  0  0  0  0  0  0  0  0  0
   37.1192   41.8576   -3.9691 C   0  0  0  0  0  0  0  0  0  0  0  0
   38.1291   40.6954   -3.8130 C   0  0  0  0  0  0  0  0  0  0  0  0
   39.1159   40.7842   -3.0819 O   0  0  0  0  0  0  0  0  0  0  0  0
   37.8160   39.5623   -4.5286 N   0  0  0  0  0  0  0  0  0  0  0  0
   36.9752   39.5494   -5.0406 H   0  0  0  0  0  0  0  0  0  0  0  0
   38.6716   38.3757   -4.5659 C   0  0  0  0  0  0  0  0  0  0  0  0
   38.3415   37.5939   -5.8404 C   0  0  0  0  0  0  0  0  0  0  0  0
   40.1503   38.8296   -4.5050 C   0  0  0  0  0  0  0  0  0  0  0  0
   41.1440   37.9673   -3.6412 C   0  0  0  0  0  0  0  0  0  0  0  0
   40.3968   37.3600   -2.4509 C   0  0  0  0  0  0  0  0  0  0  0  0
   41.5975   36.8115   -4.5688 C   0  0  0  0  0  0  0  0  0  0  0  0
   42.3747   38.8676   -3.2563 C   0  0  0  0  0  0  0  0  0  0  0  0
   43.8921   38.4162   -3.3292 C   0  0  0  0  0  0  0  0  0  0  0  0
   44.2496   38.0631   -4.7886 C   0  0  0  0  0  0  0  0  0  0  0  0
   44.8420   39.5048   -2.8309 C   0  0  0  0  0  0  0  0  0  0  0  0
   43.9738   37.1029   -2.4483 C   0  0  0  0  0  0  0  0  0  0  0  0
   45.1325   36.7700   -1.4499 C   0  0  0  0  0  0  0  0  0  0  0  0
   46.5265   37.1887   -1.9325 C   0  0  0  0  0  0  0  0  0  0  0  0
   44.8735   37.3565   -0.0473 C   0  0  0  0  0  0  0  0  0  0  0  0
   45.1540   35.2268   -1.2852 C   0  0  0  0  0  0  0  0  0  0  0  0
   36.4721   42.2479   -2.6284 C   0  0  0  0  0  0  0  0  0  0  0  0
   37.3997   44.4115   -1.6358 C   0  0  0  0  0  0  0  0  0  0  0  0
   37.4006   42.8821   -1.5731 C   0  0  0  0  0  0  0  0  0  0  0  0
   36.9742   42.4255   -0.1731 C   0  0  0  0  0  0  0  0  0  0  0  0
 48 49  1  0
 49 50  1  0
 49 47  1  0
 27 47  1  0
 27  1  1  0
  1  3  1  0
  3  4  2  0
  3  5  1  0
  3  7  1  0
  7 20  1  0
 20 21  1  0
 21 22  2  0
 22 23  1  0
 23 24  2  0
 24 25  1  0
 25 26  2  0
  7  8  1  0
  8  9  1  0
  9 10  2  0
  9 12  1  0
 12 13  1  0
 13 14  1  0
 14 15  2  0
 15 16  1  0
 16 17  2  0
 17 18  1  0
 18 19  2  0
 27 28  1  0
 28 29  2  0
 28 30  1  0
 30 32  1  0
 32 33  1  0
 32 34  1  0
 34 35  1  0
 35 36  1  0
 35 37  1  0
 35 38  1  0
 38 39  1  0
 39 40  1  0
 39 41  1  0
 39 42  1  0
 42 43  1  0
 43 44  1  0
 43 45  1  0
 43 46  1  0
 26 21  1  0
 19 14  1  0
  1  2  1  0
  5  6  1  0
  8 11  1  0
 30 31  1  0
M  END
> <minimizedAffinity>
-8.64675

> <CNNscore>
0.7339091897

> <CNNaffinity>
8.2332077026

> <CNN_VS>
6.0424265862

> <CNNaffinity_variance>
0.0406588428

$$$$



 50 51  0  0  0  0  0  0  0  0999 V2000
   35.8586   41.4146   -4.7971 N   0  0  0  0  0  0  0  0  0  0  0  0
   34.9562   41.2597   -4.3476 H   0  0  0  0  0  0  0  0  0  0  0  0
   35.5500   42.2434   -6.1511 P   0  0  0  0  0  0  0  0  0  0  0  0
   36.4128   43.4454   -6.3839 O   0  0  0  0  0  0  0  0  0  0  0  0
   34.0428   42.7411   -5.8943 O   0  0  0  0  0  0  0  0  0  0  0  0
   34.0285   43.3548   -5.1432 H   0  0  0  0  0  0  0  0  0  0  0  0
   35.4098   41.1106   -7.5769 C   0  0  0  0  0  0  0  0  0  0  0  0
   35.9351   39.7976   -7.2014 N   0  0  0  0  0  0  0  0  0  0  0  0
   35.0947   38.7830   -6.8434 C   0  0  0  0  0  0  0  0  0  0  0  0
   33.9387   38.9226   -6.4744 O   0  0  0  0  0  0  0  0  0  0  0  0
   36.9075   39.6438   -7.2070 H   0  0  0  0  0  0  0  0  0  0  0  0
   35.7482   37.6052   -6.9762 O   0  0  0  0  0  0  0  0  0  0  0  0
   35.2310   36.7176   -7.9735 C   0  0  0  0  0  0  0  0  0  0  0  0
   36.3380   36.2957   -8.9019 C   0  0  0  0  0  0  0  0  0  0  0  0
   37.0398   37.2491   -9.6529 C   0  0  0  0  0  0  0  0  0  0  0  0
   38.0703   36.8544  -10.5077 C   0  0  0  0  0  0  0  0  0  0  0  0
   38.4149   35.5078  -10.6142 C   0  0  0  0  0  0  0  0  0  0  0  0
   37.7344   34.5555   -9.8578 C   0  0  0  0  0  0  0  0  0  0  0  0
   36.7027   34.9463   -9.0030 C   0  0  0  0  0  0  0  0  0  0  0  0
   33.9974   41.0309   -8.1786 C   0  0  0  0  0  0  0  0  0  0  0  0
   33.7500   41.8723   -9.4126 C   0  0  0  0  0  0  0  0  0  0  0  0
   33.9302   43.2593   -9.3948 C   0  0  0  0  0  0  0  0  0  0  0  0
   33.6833   44.0249  -10.5368 C   0  0  0  0  0  0  0  0  0  0  0  0
   33.2553   43.4102  -11.7089 C   0  0  0  0  0  0  0  0  0  0  0  0
   33.0731   42.0314  -11.7430 C   0  0  0  0  0  0  0  0  0  0  0  0
   33.3171   41.2662  -10.6014 C   0  0  0  0  0  0  0  0  0  0  0  0
   36.7523   41.9206   -3.7526 C   0  0  0  0  0  0  0  0  0  0  0  0
   38.0359   41.0563   -3.7666 C   0  0  0  0  0  0  0  0  0  0  0  0
   39.1312   41.5119   -3.4366 O   0  0  0  0  0  0  0  0  0  0  0  0
   37.8429   39.7474   -4.1457 N   0  0  0  0  0  0  0  0  0  0  0  0
   36.9250   39.4450   -4.3339 H   0  0  0  0  0  0  0  0  0  0  0  0
   38.9351   38.7831   -4.2829 C   0  0  0  0  0  0  0  0  0  0  0  0
   40.1970   39.4085   -3.6819 C   0  0  0  0  0  0  0  0  0  0  0  0
   38.5239   37.4663   -3.5808 C   0  0  0  0  0  0  0  0  0  0  0  0
   38.7344   37.3721   -2.0239 C   0  0  0  0  0  0  0  0  0  0  0  0
   37.8317   38.3890   -1.3205 C   0  0  0  0  0  0  0  0  0  0  0  0
   38.2597   35.9501   -1.6308 C   0  0  0  0  0  0  0  0  0  0  0  0
   40.2691   37.5337   -1.7213 C   0  0  0  0  0  0  0  0  0  0  0  0
   41.3103   36.3424   -1.6303 C   0  0  0  0  0  0  0  0  0  0  0  0
   40.9672   35.2825   -2.6984 C   0  0  0  0  0  0  0  0  0  0  0  0
   42.7483   36.8161   -1.8394 C   0  0  0  0  0  0  0  0  0  0  0  0
   41.0916   35.7133   -0.1937 C   0  0  0  0  0  0  0  0  0  0  0  0
   41.6289   34.3141    0.2578 C   0  0  0  0  0  0  0  0  0  0  0  0
   42.7251   33.7336   -0.6438 C   0  0  0  0  0  0  0  0  0  0  0  0
   42.1161   34.3265    1.7209 C   0  0  0  0  0  0  0  0  0  0  0  0
   40.4281   33.3322    0.2014 C   0  0  0  0  0  0  0  0  0  0  0  0
   36.0083   41.8327   -2.4082 C   0  0  0  0  0  0  0  0  0  0  0  0
   37.1330   42.3981   -0.1852 C   0  0  0  0  0  0  0  0  0  0  0  0
   36.3249   42.9295   -1.3715 C   0  0  0  0  0  0  0  0  0  0  0  0
   37.0957   44.0688   -2.0485 C   0  0  0  0  0  0  0  0  0  0  0  0
 48 49  1  0
 49 50  1  0
 49 47  1  0
 27 47  1  0
 27  1  1  0
  1  3  1  0
  3  4  2  0
  3  5  1  0
  3  7  1  0
  7 20  1  0
 20 21  1  0
 21 22  2  0
 22 23  1  0
 23 24  2  0
 24 25  1  0
 25 26  2  0
  7  8  1  0
  8  9  1  0
  9 10  2  0
  9 12  1  0
 12 13  1  0
 13 14  1  0
 14 15  2  0
 15 16  1  0
 16 17  2  0
 17 18  1  0
 18 19  2  0
 27 28  1  0
 28 29  2  0
 28 30  1  0
 30 32  1  0
 32 33  1  0
 32 34  1  0
 34 35  1  0
 35 36  1  0
 35 37  1  0
 35 38  1  0
 38 39  1  0
 39 40  1  0
 39 41  1  0
 39 42  1  0
 42 43  1  0
 43 44  1  0
 43 45  1  0
 43 46  1  0
 26 21  1  0
 19 14  1  0
  1  2  1  0
  5  6  1  0
  8 11  1  0
 30 31  1  0
M  END
> <minimizedAffinity>
-8.23527

> <CNNscore>
0.6937468052

> <CNNaffinity>
8.3000440598

> <CNN_VS>
5.7581291199

> <CNNaffinity_variance>
0.1088398769

$$$$
