


 17 18  0  0  0  0  0  0  0  0999 V2000
   11.3099    7.8500    7.2472 C   0  0  0  0  0  0  0  0  0  0  0  0
   11.8347    7.7179    5.9762 C   0  0  0  0  0  0  0  0  0  0  0  0
   12.9939    8.4403    5.9094 N   0  0  0  0  0  0  0  0  0  0  0  0
   13.2536    9.0377    7.1203 C   0  0  0  0  0  0  0  0  0  0  0  0
   14.3209    9.8565    7.5100 C   0  0  0  0  0  0  0  0  0  0  0  0
   14.3244   10.3321    8.8237 C   0  0  0  0  0  0  0  0  0  0  0  0
   13.2999    9.9981    9.6991 C   0  0  0  0  0  0  0  0  0  0  0  0
   13.3675   10.4992   10.9683 O   0  0  0  0  0  0  0  0  0  0  0  0
   12.2373    9.1815    9.3044 C   0  0  0  0  0  0  0  0  0  0  0  0
   12.2126    8.6876    7.9820 C   0  0  0  0  0  0  0  0  0  0  0  0
   13.5613    8.5211    5.1089 H   0  0  0  0  0  0  0  0  0  0  0  0
   14.0863   11.0456   11.2186 H   0  0  0  0  0  0  0  0  0  0  0  0
   10.0449    7.2276    7.7534 C   0  0  0  0  0  0  0  0  0  0  0  0
   11.3643    5.1294    7.3793 N   0  0  0  0  0  0  0  0  0  0  0  0
   10.0638    5.6916    7.7486 C   0  0  0  0  0  0  0  0  0  0  0  0
   11.3112    4.1109    7.3947 H   0  0  0  0  0  0  0  0  0  0  0  0
   12.0715    5.4432    8.0440 H   0  0  0  0  0  0  0  0  0  0  0  0
 14 15  1  0
 15 13  1  0
 13  1  1  0
  1  2  2  0
  2  3  1  0
  3  4  1  0
  4  5  2  0
  5  6  1  0
  6  7  2  0
  7  8  1  0
  7  9  1  0
  9 10  2  0
 10  1  1  0
 10  4  1  0
 14 16  1  0
 14 17  1  0
  3 11  1  0
  8 12  1  0
M  END
> <minimizedAffinity>
-7.91991

> <CNNscore>
0.9398318529

> <CNNaffinity>
5.6194968224

> <CNN_VS>
5.2813820839

> <CNNaffinity_variance>
0.0894628242

$$$$



 17 18  0  0  0  0  0  0  0  0999 V2000
   20.4249    1.5976   15.6974 C   0  0  0  0  0  0  0  0  0  0  0  0
   21.6915    1.2509   15.2686 C   0  0  0  0  0  0  0  0  0  0  0  0
   22.4526    2.3854   15.2055 N   0  0  0  0  0  0  0  0  0  0  0  0
   21.7149    3.4767   15.5995 C   0  0  0  0  0  0  0  0  0  0  0  0
   22.0823    4.8247   15.6964 C   0  0  0  0  0  0  0  0  0  0  0  0
   21.1101    5.7301   16.1290 C   0  0  0  0  0  0  0  0  0  0  0  0
   19.8306    5.2951   16.4465 C   0  0  0  0  0  0  0  0  0  0  0  0
   18.9306    6.2354   16.8620 O   0  0  0  0  0  0  0  0  0  0  0  0
   19.4695    3.9492   16.3471 C   0  0  0  0  0  0  0  0  0  0  0  0
   20.4353    3.0152   15.9135 C   0  0  0  0  0  0  0  0  0  0  0  0
   23.3940    2.4162   14.9191 H   0  0  0  0  0  0  0  0  0  0  0  0
   19.1873    7.1345   16.9237 H   0  0  0  0  0  0  0  0  0  0  0  0
   19.2715    0.6640   15.9021 C   0  0  0  0  0  0  0  0  0  0  0  0
   17.3495   -0.1512   14.5150 N   0  0  0  0  0  0  0  0  0  0  0  0
   18.8056   -0.0378   14.6175 C   0  0  0  0  0  0  0  0  0  0  0  0
   17.1057   -0.6239   13.6446 H   0  0  0  0  0  0  0  0  0  0  0  0
   16.9344    0.7805   14.5237 H   0  0  0  0  0  0  0  0  0  0  0  0
 14 15  1  0
 15 13  1  0
 13  1  1  0
  1  2  2  0
  2  3  1  0
  3  4  1  0
  4  5  2  0
  5  6  1  0
  6  7  2  0
  7  8  1  0
  7  9  1  0
  9 10  2  0
 10  1  1  0
 10  4  1  0
 14 16  1  0
 14 17  1  0
  3 11  1  0
  8 12  1  0
M  END
> <minimizedAffinity>
-4.68846

> <CNNscore>
0.8045559525

> <CNNaffinity>
3.4431755543

> <CNN_VS>
2.7702274323

> <CNNaffinity_variance>
0.5239481330

$$$$



 17 18  0  0  0  0  0  0  0  0999 V2000
   18.5301    0.8841   15.7237 C   0  0  0  0  0  0  0  0  0  0  0  0
   18.4236    0.0621   14.6186 C   0  0  0  0  0  0  0  0  0  0  0  0
   17.1438   -0.4160   14.5568 N   0  0  0  0  0  0  0  0  0  0  0  0
   16.3963    0.0873   15.5952 C   0  0  0  0  0  0  0  0  0  0  0  0
   15.0507   -0.1238   15.9212 C   0  0  0  0  0  0  0  0  0  0  0  0
   14.5506    0.5247   17.0533 C   0  0  0  0  0  0  0  0  0  0  0  0
   15.3697    1.3441   17.8181 C   0  0  0  0  0  0  0  0  0  0  0  0
   14.8142    1.9457   18.9118 O   0  0  0  0  0  0  0  0  0  0  0  0
   16.7116    1.5502   17.4885 C   0  0  0  0  0  0  0  0  0  0  0  0
   17.2393    0.9067   16.3480 C   0  0  0  0  0  0  0  0  0  0  0  0
   16.8061   -1.0324   13.8674 H   0  0  0  0  0  0  0  0  0  0  0  0
   13.9127    1.7980   19.1204 H   0  0  0  0  0  0  0  0  0  0  0  0
   19.7595    1.6136   16.1711 C   0  0  0  0  0  0  0  0  0  0  0  0
   21.8208    1.7018   14.7475 N   0  0  0  0  0  0  0  0  0  0  0  0
   21.0717    0.9371   15.7464 C   0  0  0  0  0  0  0  0  0  0  0  0
   22.6772    1.2019   14.5087 H   0  0  0  0  0  0  0  0  0  0  0  0
   22.0569    2.6183   15.1279 H   0  0  0  0  0  0  0  0  0  0  0  0
 14 15  1  0
 15 13  1  0
 13  1  1  0
  1  2  2  0
  2  3  1  0
  3  4  1  0
  4  5  2  0
  5  6  1  0
  6  7  2  0
  7  8  1  0
  7  9  1  0
  9 10  2  0
 10  1  1  0
 10  4  1  0
 14 16  1  0
 14 17  1  0
  3 11  1  0
  8 12  1  0
M  END
> <minimizedAffinity>
-5.08265

> <CNNscore>
0.7446748018

> <CNNaffinity>
3.2975265980

> <CNN_VS>
2.4555850029

> <CNNaffinity_variance>
0.9861454964

$$$$



 17 18  0  0  0  0  0  0  0  0999 V2000
   11.1270    7.7953    7.4518 C   0  0  0  0  0  0  0  0  0  0  0  0
   10.7158    7.8689    8.7686 C   0  0  0  0  0  0  0  0  0  0  0  0
   11.6013    8.6529    9.4552 N   0  0  0  0  0  0  0  0  0  0  0  0
   12.5851    9.1121    8.6115 C   0  0  0  0  0  0  0  0  0  0  0  0
   13.6832    9.9403    8.8752 C   0  0  0  0  0  0  0  0  0  0  0  0
   14.5339   10.2445    7.8094 C   0  0  0  0  0  0  0  0  0  0  0  0
   14.2878    9.7361    6.5412 C   0  0  0  0  0  0  0  0  0  0  0  0
   15.1613   10.0741    5.5466 O   0  0  0  0  0  0  0  0  0  0  0  0
   13.1911    8.9095    6.2843 C   0  0  0  0  0  0  0  0  0  0  0  0
   12.3164    8.5892    7.3453 C   0  0  0  0  0  0  0  0  0  0  0  0
   11.5427    8.8591   10.4161 H   0  0  0  0  0  0  0  0  0  0  0  0
   15.8924   10.6294    5.7339 H   0  0  0  0  0  0  0  0  0  0  0  0
   10.4495    7.0363    6.3523 C   0  0  0  0  0  0  0  0  0  0  0  0
   11.3443    5.0393    7.5748 N   0  0  0  0  0  0  0  0  0  0  0  0
   10.3588    5.5241    6.6066 C   0  0  0  0  0  0  0  0  0  0  0  0
   11.2325    4.0331    7.6990 H   0  0  0  0  0  0  0  0  0  0  0  0
   11.2028    5.5100    8.4686 H   0  0  0  0  0  0  0  0  0  0  0  0
 14 15  1  0
 15 13  1  0
 13  1  1  0
  1  2  2  0
  2  3  1  0
  3  4  1  0
  4  5  2  0
  5  6  1  0
  6  7  2  0
  7  8  1  0
  7  9  1  0
  9 10  2  0
 10  1  1  0
 10  4  1  0
 14 16  1  0
 14 17  1  0
  3 11  1  0
  8 12  1  0
M  END
> <minimizedAffinity>
-6.90300

> <CNNscore>
0.6955344677

> <CNNaffinity>
5.9447231293

> <CNN_VS>
4.1347599030

> <CNNaffinity_variance>
0.2487010956

$$$$



 17 18  0  0  0  0  0  0  0  0999 V2000
   15.9816    0.2252   16.3508 C   0  0  0  0  0  0  0  0  0  0  0  0
   16.4581    1.3198   17.0459 C   0  0  0  0  0  0  0  0  0  0  0  0
   15.6184    1.5638   18.0973 N   0  0  0  0  0  0  0  0  0  0  0  0
   14.6006    0.6396   18.1188 C   0  0  0  0  0  0  0  0  0  0  0  0
   13.5282    0.5015   19.0089 C   0  0  0  0  0  0  0  0  0  0  0  0
   12.6303   -0.5446   18.7819 C   0  0  0  0  0  0  0  0  0  0  0  0
   12.8067   -1.4069   17.7082 C   0  0  0  0  0  0  0  0  0  0  0  0
   11.8900   -2.4068   17.5463 O   0  0  0  0  0  0  0  0  0  0  0  0
   13.8779   -1.2637   16.8229 C   0  0  0  0  0  0  0  0  0  0  0  0
   14.7994   -0.2148   17.0328 C   0  0  0  0  0  0  0  0  0  0  0  0
   15.7270    2.2964   18.7460 H   0  0  0  0  0  0  0  0  0  0  0  0
   11.1767   -2.4905   18.1481 H   0  0  0  0  0  0  0  0  0  0  0  0
   16.5936   -0.3827   15.1262 C   0  0  0  0  0  0  0  0  0  0  0  0
   18.9202   -0.8094   14.2968 N   0  0  0  0  0  0  0  0  0  0  0  0
   17.9683    0.1998   14.7648 C   0  0  0  0  0  0  0  0  0  0  0  0
   19.8090   -0.3611   14.0742 H   0  0  0  0  0  0  0  0  0  0  0  0
   18.5504   -1.2643   13.4621 H   0  0  0  0  0  0  0  0  0  0  0  0
 14 15  1  0
 15 13  1  0
 13  1  1  0
  1  2  2  0
  2  3  1  0
  3  4  1  0
  4  5  2  0
  5  6  1  0
  6  7  2  0
  7  8  1  0
  7  9  1  0
  9 10  2  0
 10  1  1  0
 10  4  1  0
 14 16  1  0
 14 17  1  0
  3 11  1  0
  8 12  1  0
M  END
> <minimizedAffinity>
-5.50938

> <CNNscore>
0.6952439547

> <CNNaffinity>
3.3616535664

> <CNN_VS>
2.3371694088

> <CNNaffinity_variance>
0.7847421169

$$$$



 17 18  0  0  0  0  0  0  0  0999 V2000
   24.6741    6.5808   15.1789 C   0  0  0  0  0  0  0  0  0  0  0  0
   24.8078    5.2274   15.4213 C   0  0  0  0  0  0  0  0  0  0  0  0
   24.2314    4.5435   14.3868 N   0  0  0  0  0  0  0  0  0  0  0  0
   23.7302    5.4219   13.4553 C   0  0  0  0  0  0  0  0  0  0  0  0
   23.0692    5.1721   12.2462 C   0  0  0  0  0  0  0  0  0  0  0  0
   22.6621    6.2757   11.4921 C   0  0  0  0  0  0  0  0  0  0  0  0
   22.9096    7.5668   11.9384 C   0  0  0  0  0  0  0  0  0  0  0  0
   22.4830    8.5982   11.1506 O   0  0  0  0  0  0  0  0  0  0  0  0
   23.5688    7.8099   13.1460 C   0  0  0  0  0  0  0  0  0  0  0  0
   23.9910    6.7105   13.9248 C   0  0  0  0  0  0  0  0  0  0  0  0
   24.1822    3.5626   14.3188 H   0  0  0  0  0  0  0  0  0  0  0  0
   22.0423    8.4198   10.3432 H   0  0  0  0  0  0  0  0  0  0  0  0
   25.1597    7.6915   16.0588 C   0  0  0  0  0  0  0  0  0  0  0  0
   25.0367    7.2290   18.5193 N   0  0  0  0  0  0  0  0  0  0  0  0
   24.3686    7.8377   17.3675 C   0  0  0  0  0  0  0  0  0  0  0  0
   24.4636    7.3595   19.3529 H   0  0  0  0  0  0  0  0  0  0  0  0
   25.9451    7.6715   18.6585 H   0  0  0  0  0  0  0  0  0  0  0  0
 14 15  1  0
 15 13  1  0
 13  1  1  0
  1  2  2  0
  2  3  1  0
  3  4  1  0
  4  5  2  0
  5  6  1  0
  6  7  2  0
  7  8  1  0
  7  9  1  0
  9 10  2  0
 10  1  1  0
 10  4  1  0
 14 16  1  0
 14 17  1  0
  3 11  1  0
  8 12  1  0
M  END
> <minimizedAffinity>
-4.74610

> <CNNscore>
0.6910958290

> <CNNaffinity>
3.9592840672

> <CNN_VS>
2.7362446785

> <CNNaffinity_variance>
0.0552409738

$$$$



 17 18  0  0  0  0  0  0  0  0999 V2000
   23.1693    7.0214   12.3567 C   0  0  0  0  0  0  0  0  0  0  0  0
   23.2275    5.8949   11.5591 C   0  0  0  0  0  0  0  0  0  0  0  0
   22.9362    4.8035   12.3299 N   0  0  0  0  0  0  0  0  0  0  0  0
   22.6718    5.1898   13.6227 C   0  0  0  0  0  0  0  0  0  0  0  0
   22.3260    4.4194   14.7400 C   0  0  0  0  0  0  0  0  0  0  0  0
   22.1157    5.0901   15.9475 C   0  0  0  0  0  0  0  0  0  0  0  0
   22.2496    6.4699   16.0222 C   0  0  0  0  0  0  0  0  0  0  0  0
   22.0300    7.0592   17.2351 O   0  0  0  0  0  0  0  0  0  0  0  0
   22.5956    7.2332   14.9044 C   0  0  0  0  0  0  0  0  0  0  0  0
   22.8117    6.5779   13.6726 C   0  0  0  0  0  0  0  0  0  0  0  0
   22.9185    3.8741   12.0055 H   0  0  0  0  0  0  0  0  0  0  0  0
   21.7985    6.5343   17.9760 H   0  0  0  0  0  0  0  0  0  0  0  0
   23.4243    8.4313   11.9199 C   0  0  0  0  0  0  0  0  0  0  0  0
   25.1217   10.2569   11.6566 N   0  0  0  0  0  0  0  0  0  0  0  0
   24.8927    8.8643   12.0464 C   0  0  0  0  0  0  0  0  0  0  0  0
   26.1110   10.4814   11.7626 H   0  0  0  0  0  0  0  0  0  0  0  0
   24.5676   10.8722   12.2523 H   0  0  0  0  0  0  0  0  0  0  0  0
 14 15  1  0
 15 13  1  0
 13  1  1  0
  1  2  2  0
  2  3  1  0
  3  4  1  0
  4  5  2  0
  5  6  1  0
  6  7  2  0
  7  8  1  0
  7  9  1  0
  9 10  2  0
 10  1  1  0
 10  4  1  0
 14 16  1  0
 14 17  1  0
  3 11  1  0
  8 12  1  0
M  END
> <minimizedAffinity>
-5.46732

> <CNNscore>
0.6873260736

> <CNNaffinity>
3.5005562305

> <CNN_VS>
2.4060235023

> <CNNaffinity_variance>
0.6839549541

$$$$



 17 18  0  0  0  0  0  0  0  0999 V2000
   17.4428    0.4928   15.8168 C   0  0  0  0  0  0  0  0  0  0  0  0
   17.3901    1.4507   16.8109 C   0  0  0  0  0  0  0  0  0  0  0  0
   16.1958    1.3293   17.4659 N   0  0  0  0  0  0  0  0  0  0  0  0
   15.4618    0.2969   16.9312 C   0  0  0  0  0  0  0  0  0  0  0  0
   14.1962   -0.1865   17.2864 C   0  0  0  0  0  0  0  0  0  0  0  0
   13.6869   -1.2627   16.5552 C   0  0  0  0  0  0  0  0  0  0  0  0
   14.4193   -1.8213   15.5165 C   0  0  0  0  0  0  0  0  0  0  0  0
   13.8595   -2.8706   14.8441 O   0  0  0  0  0  0  0  0  0  0  0  0
   15.6810   -1.3342   15.1661 C   0  0  0  0  0  0  0  0  0  0  0  0
   16.2173   -0.2481   15.8915 C   0  0  0  0  0  0  0  0  0  0  0  0
   15.9034    1.8996   18.2132 H   0  0  0  0  0  0  0  0  0  0  0  0
   13.0124   -3.1865   15.0905 H   0  0  0  0  0  0  0  0  0  0  0  0
   18.5708    0.2729   14.8561 C   0  0  0  0  0  0  0  0  0  0  0  0
   19.6840   -1.4165   16.3359 N   0  0  0  0  0  0  0  0  0  0  0  0
   19.8670   -0.2135   15.5216 C   0  0  0  0  0  0  0  0  0  0  0  0
   20.5768   -1.6870   16.7483 H   0  0  0  0  0  0  0  0  0  0  0  0
   19.3369   -2.1749   15.7487 H   0  0  0  0  0  0  0  0  0  0  0  0
 14 15  1  0
 15 13  1  0
 13  1  1  0
  1  2  2  0
  2  3  1  0
  3  4  1  0
  4  5  2  0
  5  6  1  0
  6  7  2  0
  7  8  1  0
  7  9  1  0
  9 10  2  0
 10  1  1  0
 10  4  1  0
 14 16  1  0
 14 17  1  0
  3 11  1  0
  8 12  1  0
M  END
> <minimizedAffinity>
-4.75642

> <CNNscore>
0.6105238795

> <CNNaffinity>
3.4560890198

> <CNN_VS>
2.1100249290

> <CNNaffinity_variance>
0.5377210975

$$$$



 17 18  0  0  0  0  0  0  0  0999 V2000
   22.6481    5.1293   15.5422 C   0  0  0  0  0  0  0  0  0  0  0  0
   22.1001    5.9233   16.5309 C   0  0  0  0  0  0  0  0  0  0  0  0
   22.0168    7.2046   16.0603 N   0  0  0  0  0  0  0  0  0  0  0  0
   22.4875    7.2700   14.7701 C   0  0  0  0  0  0  0  0  0  0  0  0
   22.5855    8.3644   13.9017 C   0  0  0  0  0  0  0  0  0  0  0  0
   23.1152    8.1345   12.6294 C   0  0  0  0  0  0  0  0  0  0  0  0
   23.5264    6.8626   12.2543 C   0  0  0  0  0  0  0  0  0  0  0  0
   24.0353    6.7109   10.9955 O   0  0  0  0  0  0  0  0  0  0  0  0
   23.4270    5.7748   13.1252 C   0  0  0  0  0  0  0  0  0  0  0  0
   22.8936    5.9822   14.4159 C   0  0  0  0  0  0  0  0  0  0  0  0
   21.6694    7.9706   16.5721 H   0  0  0  0  0  0  0  0  0  0  0  0
   24.0958    7.4498   10.4224 H   0  0  0  0  0  0  0  0  0  0  0  0
   22.9217    3.6595   15.6352 C   0  0  0  0  0  0  0  0  0  0  0  0
   22.2635    1.3730   14.8465 N   0  0  0  0  0  0  0  0  0  0  0  0
   21.8942    2.7889   14.8962 C   0  0  0  0  0  0  0  0  0  0  0  0
   21.5444    0.8514   14.3454 H   0  0  0  0  0  0  0  0  0  0  0  0
   22.3474    1.0100   15.7960 H   0  0  0  0  0  0  0  0  0  0  0  0
 14 15  1  0
 15 13  1  0
 13  1  1  0
  1  2  2  0
  2  3  1  0
  3  4  1  0
  4  5  2  0
  5  6  1  0
  6  7  2  0
  7  8  1  0
  7  9  1  0
  9 10  2  0
 10  1  1  0
 10  4  1  0
 14 16  1  0
 14 17  1  0
  3 11  1  0
  8 12  1  0
M  END
> <minimizedAffinity>
-5.58163

> <CNNscore>
0.5874606967

> <CNNaffinity>
3.8628749847

> <CNN_VS>
2.2692873478

> <CNNaffinity_variance>
0.1675395519

$$$$
