


 13 12  0  0  0  0  0  0  0  0999 V2000
  -16.1876   57.9847  -21.2054 C   0  0  0  0  0  0  0  0  0  0  0  0
  -17.6206   58.0213  -21.7347 C   0  0  0  0  0  0  0  0  0  0  0  0
  -18.5971   60.1330  -22.7872 C   0  0  0  0  0  0  0  0  0  0  0  0
  -17.7753   58.8574  -23.0241 C   0  0  0  0  0  0  0  0  0  0  0  0
  -16.4416   59.0941  -23.6222 N   0  0  0  0  0  0  0  0  0  0  0  0
  -16.2649   58.3724  -24.8828 C   0  0  0  0  0  0  0  0  0  0  0  0
  -16.0850   60.5018  -23.7894 C   0  0  0  0  0  0  0  0  0  0  0  0
  -16.2008   57.8432  -19.7750 O   0  0  0  0  0  0  0  0  0  0  0  0
  -15.0355   57.4356  -19.2008 C   0  0  0  0  0  0  0  0  0  0  0  0
  -14.9452   56.4499  -18.4781 O   0  0  0  0  0  0  0  0  0  0  0  0
  -13.9701   58.2617  -19.5200 N   0  0  0  0  0  0  0  0  0  0  0  0
  -12.6905   58.0408  -18.8754 C   0  0  0  0  0  0  0  0  0  0  0  0
  -14.1253   59.4983  -20.2656 C   0  0  0  0  0  0  0  0  0  0  0  0
  4  3  1  0
  4  2  1  0
  2  1  1  0
  1  8  1  0
  8  9  1  0
  9 10  2  0
  9 11  1  0
 11 12  1  0
 11 13  1  0
  4  5  1  0
  5  6  1  0
  5  7  1  0
M  END
> <minimizedAffinity>
-4.91396

> <CNNscore>
0.9739876390

> <CNNaffinity>
6.2189388275

> <CNN_VS>
6.0571694374

> <CNNaffinity_variance>
0.2033944130

$$$$



 13 12  0  0  0  0  0  0  0  0999 V2000
  -16.3050   57.9836  -20.8964 C   0  0  0  0  0  0  0  0  0  0  0  0
  -17.5299   58.4932  -21.6546 C   0  0  0  0  0  0  0  0  0  0  0  0
  -18.8488   58.4383  -23.8405 C   0  0  0  0  0  0  0  0  0  0  0  0
  -17.5006   58.1558  -23.1616 C   0  0  0  0  0  0  0  0  0  0  0  0
  -16.3455   58.8307  -23.7962 N   0  0  0  0  0  0  0  0  0  0  0  0
  -16.0313   58.2699  -25.1108 C   0  0  0  0  0  0  0  0  0  0  0  0
  -16.4543   60.2861  -23.8786 C   0  0  0  0  0  0  0  0  0  0  0  0
  -15.6135   59.0887  -20.2904 O   0  0  0  0  0  0  0  0  0  0  0  0
  -14.3081   59.2470  -20.6436 C   0  0  0  0  0  0  0  0  0  0  0  0
  -13.9492   59.7274  -21.7124 O   0  0  0  0  0  0  0  0  0  0  0  0
  -13.4362   58.7992  -19.6644 N   0  0  0  0  0  0  0  0  0  0  0  0
  -12.0146   58.7721  -19.9469 C   0  0  0  0  0  0  0  0  0  0  0  0
  -13.8812   58.1104  -18.4658 C   0  0  0  0  0  0  0  0  0  0  0  0
  4  3  1  0
  4  2  1  0
  2  1  1  0
  1  8  1  0
  8  9  1  0
  9 10  2  0
  9 11  1  0
 11 12  1  0
 11 13  1  0
  4  5  1  0
  5  6  1  0
  5  7  1  0
M  END
> <minimizedAffinity>
-5.58836

> <CNNscore>
0.9543889761

> <CNNaffinity>
6.0107884407

> <CNN_VS>
5.7366304398

> <CNNaffinity_variance>
0.9203560352

$$$$



 13 12  0  0  0  0  0  0  0  0999 V2000
  -15.3945   59.5635  -21.3168 C   0  0  0  0  0  0  0  0  0  0  0  0
  -16.1816   59.5506  -22.6266 C   0  0  0  0  0  0  0  0  0  0  0  0
  -18.4416   58.6549  -21.8452 C   0  0  0  0  0  0  0  0  0  0  0  0
  -17.2030   58.3954  -22.7151 C   0  0  0  0  0  0  0  0  0  0  0  0
  -17.5054   58.1115  -24.1366 N   0  0  0  0  0  0  0  0  0  0  0  0
  -18.7071   58.8087  -24.5961 C   0  0  0  0  0  0  0  0  0  0  0  0
  -16.3969   58.3495  -25.0593 C   0  0  0  0  0  0  0  0  0  0  0  0
  -14.0370   59.1588  -21.5610 O   0  0  0  0  0  0  0  0  0  0  0  0
  -13.1951   59.2036  -20.4919 C   0  0  0  0  0  0  0  0  0  0  0  0
  -12.2383   59.9656  -20.4148 O   0  0  0  0  0  0  0  0  0  0  0  0
  -13.5381   58.2896  -19.5088 N   0  0  0  0  0  0  0  0  0  0  0  0
  -12.6586   58.1188  -18.3691 C   0  0  0  0  0  0  0  0  0  0  0  0
  -14.5918   57.3049  -19.6789 C   0  0  0  0  0  0  0  0  0  0  0  0
  4  3  1  0
  4  2  1  0
  2  1  1  0
  1  8  1  0
  8  9  1  0
  9 10  2  0
  9 11  1  0
 11 12  1  0
 11 13  1  0
  4  5  1  0
  5  6  1  0
  5  7  1  0
M  END
> <minimizedAffinity>
-5.20891

> <CNNscore>
0.8961412311

> <CNNaffinity>
5.7412943840

> <CNN_VS>
5.1450104713

> <CNNaffinity_variance>
0.2118353993

$$$$



 13 12  0  0  0  0  0  0  0  0999 V2000
  -15.7940   59.2298  -21.9995 C   0  0  0  0  0  0  0  0  0  0  0  0
  -15.8889   60.1666  -23.2030 C   0  0  0  0  0  0  0  0  0  0  0  0
  -16.0971   58.1956  -24.8131 C   0  0  0  0  0  0  0  0  0  0  0  0
  -16.6655   59.5586  -24.3917 C   0  0  0  0  0  0  0  0  0  0  0  0
  -18.1131   59.5453  -24.0808 N   0  0  0  0  0  0  0  0  0  0  0  0
  -18.6396   58.1856  -23.9573 C   0  0  0  0  0  0  0  0  0  0  0  0
  -18.4991   60.3459  -22.9203 C   0  0  0  0  0  0  0  0  0  0  0  0
  -14.4995   59.3545  -21.3869 O   0  0  0  0  0  0  0  0  0  0  0  0
  -14.2925   58.6132  -20.2637 C   0  0  0  0  0  0  0  0  0  0  0  0
  -15.1769   57.9828  -19.6959 O   0  0  0  0  0  0  0  0  0  0  0  0
  -12.9760   58.6579  -19.8345 N   0  0  0  0  0  0  0  0  0  0  0  0
  -12.6250   58.0326  -18.5746 C   0  0  0  0  0  0  0  0  0  0  0  0
  -11.9760   59.5179  -20.4422 C   0  0  0  0  0  0  0  0  0  0  0  0
  4  3  1  0
  4  2  1  0
  2  1  1  0
  1  8  1  0
  8  9  1  0
  9 10  2  0
  9 11  1  0
 11 12  1  0
 11 13  1  0
  4  5  1  0
  5  6  1  0
  5  7  1  0
M  END
> <minimizedAffinity>
-5.35379

> <CNNscore>
0.7805523276

> <CNNaffinity>
5.5535831451

> <CNN_VS>
4.3348622322

> <CNNaffinity_variance>
0.2631131709

$$$$



 13 12  0  0  0  0  0  0  0  0999 V2000
  -10.2294   64.8334  -16.8590 C   0  0  0  0  0  0  0  0  0  0  0  0
  -11.1390   64.5203  -15.6717 C   0  0  0  0  0  0  0  0  0  0  0  0
  -13.6111   65.0480  -16.0341 C   0  0  0  0  0  0  0  0  0  0  0  0
  -12.2711   65.5533  -15.4794 C   0  0  0  0  0  0  0  0  0  0  0  0
  -12.3191   65.9750  -14.0608 N   0  0  0  0  0  0  0  0  0  0  0  0
  -11.4975   65.1213  -13.2021 C   0  0  0  0  0  0  0  0  0  0  0  0
  -12.0025   67.3830  -13.8280 C   0  0  0  0  0  0  0  0  0  0  0  0
  -10.7925   64.2830  -18.0617 O   0  0  0  0  0  0  0  0  0  0  0  0
  -10.2388   64.7045  -19.2319 C   0  0  0  0  0  0  0  0  0  0  0  0
   -9.7391   65.8131  -19.3840 O   0  0  0  0  0  0  0  0  0  0  0  0
  -10.3103   63.7443  -20.2281 N   0  0  0  0  0  0  0  0  0  0  0  0
   -9.8886   64.0908  -21.5711 C   0  0  0  0  0  0  0  0  0  0  0  0
  -11.0261   62.4910  -20.0670 C   0  0  0  0  0  0  0  0  0  0  0  0
  4  3  1  0
  4  2  1  0
  2  1  1  0
  1  8  1  0
  8  9  1  0
  9 10  2  0
  9 11  1  0
 11 12  1  0
 11 13  1  0
  4  5  1  0
  5  6  1  0
  5  7  1  0
M  END
> <minimizedAffinity>
-3.97988

> <CNNscore>
0.5141386986

> <CNNaffinity>
3.5532808304

> <CNN_VS>
1.8268791437

> <CNNaffinity_variance>
0.5494985580

$$$$



 13 12  0  0  0  0  0  0  0  0999 V2000
  -16.5158   57.7727  -20.4227 C   0  0  0  0  0  0  0  0  0  0  0  0
  -15.0159   57.5255  -20.2663 C   0  0  0  0  0  0  0  0  0  0  0  0
  -13.8937   57.7615  -17.9846 C   0  0  0  0  0  0  0  0  0  0  0  0
  -14.3390   58.4857  -19.2636 C   0  0  0  0  0  0  0  0  0  0  0  0
  -13.2593   59.2333  -19.9478 N   0  0  0  0  0  0  0  0  0  0  0  0
  -11.9392   58.6561  -19.6918 C   0  0  0  0  0  0  0  0  0  0  0  0
  -13.4595   59.4247  -21.3830 C   0  0  0  0  0  0  0  0  0  0  0  0
  -16.7356   58.8940  -21.2949 O   0  0  0  0  0  0  0  0  0  0  0  0
  -17.8163   58.8113  -22.1189 C   0  0  0  0  0  0  0  0  0  0  0  0
  -18.9210   58.4293  -21.7507 O   0  0  0  0  0  0  0  0  0  0  0  0
  -17.5244   59.2001  -23.4163 N   0  0  0  0  0  0  0  0  0  0  0  0
  -18.5340   59.0371  -24.4438 C   0  0  0  0  0  0  0  0  0  0  0  0
  -16.1793   59.5188  -23.8615 C   0  0  0  0  0  0  0  0  0  0  0  0
  4  3  1  0
  4  2  1  0
  2  1  1  0
  1  8  1  0
  8  9  1  0
  9 10  2  0
  9 11  1  0
 11 12  1  0
 11 13  1  0
  4  5  1  0
  5  6  1  0
  5  7  1  0
M  END
> <minimizedAffinity>
-5.14677

> <CNNscore>
0.4631511569

> <CNNaffinity>
5.0469894409

> <CNN_VS>
2.3375189304

> <CNNaffinity_variance>
1.2492409945

$$$$



 13 12  0  0  0  0  0  0  0  0999 V2000
   -9.3173   67.0344  -15.3480 C   0  0  0  0  0  0  0  0  0  0  0  0
  -10.4782   66.0827  -15.0621 C   0  0  0  0  0  0  0  0  0  0  0  0
   -9.8853   63.6015  -14.9486 C   0  0  0  0  0  0  0  0  0  0  0  0
  -10.3824   64.7506  -15.8380 C   0  0  0  0  0  0  0  0  0  0  0  0
  -11.6699   64.4815  -16.5181 N   0  0  0  0  0  0  0  0  0  0  0  0
  -12.7765   65.2321  -15.9237 C   0  0  0  0  0  0  0  0  0  0  0  0
  -11.6496   64.6702  -17.9674 C   0  0  0  0  0  0  0  0  0  0  0  0
   -8.6987   66.6854  -16.5977 O   0  0  0  0  0  0  0  0  0  0  0  0
   -7.8743   67.6222  -17.1423 C   0  0  0  0  0  0  0  0  0  0  0  0
   -7.7709   67.8144  -18.3482 O   0  0  0  0  0  0  0  0  0  0  0  0
   -7.1645   68.3255  -16.1826 N   0  0  0  0  0  0  0  0  0  0  0  0
   -6.1431   69.2621  -16.6084 C   0  0  0  0  0  0  0  0  0  0  0  0
   -7.2006   67.9902  -14.7700 C   0  0  0  0  0  0  0  0  0  0  0  0
  4  3  1  0
  4  2  1  0
  2  1  1  0
  1  8  1  0
  8  9  1  0
  9 10  2  0
  9 11  1  0
 11 12  1  0
 11 13  1  0
  4  5  1  0
  5  6  1  0
  5  7  1  0
M  END
> <minimizedAffinity>
-3.01313

> <CNNscore>
0.3428319693

> <CNNaffinity>
3.1008930206

> <CNN_VS>
1.0630853176

> <CNNaffinity_variance>
0.7995511889

$$$$



 13 12  0  0  0  0  0  0  0  0999 V2000
  -12.4812   66.6512  -15.7749 C   0  0  0  0  0  0  0  0  0  0  0  0
  -13.4309   66.5959  -14.5791 C   0  0  0  0  0  0  0  0  0  0  0  0
  -11.2682   67.2793  -13.4058 C   0  0  0  0  0  0  0  0  0  0  0  0
  -12.7233   66.8225  -13.2250 C   0  0  0  0  0  0  0  0  0  0  0  0
  -13.5443   67.7225  -12.3832 N   0  0  0  0  0  0  0  0  0  0  0  0
  -14.9610   67.6803  -12.7473 C   0  0  0  0  0  0  0  0  0  0  0  0
  -13.3849   67.5306  -10.9429 C   0  0  0  0  0  0  0  0  0  0  0  0
  -12.5209   65.4024  -16.4858 O   0  0  0  0  0  0  0  0  0  0  0  0
  -11.3653   64.6826  -16.5008 C   0  0  0  0  0  0  0  0  0  0  0  0
  -10.7007   64.4479  -15.4982 O   0  0  0  0  0  0  0  0  0  0  0  0
  -11.0247   64.2536  -17.7733 N   0  0  0  0  0  0  0  0  0  0  0  0
   -9.7500   63.5935  -17.9758 C   0  0  0  0  0  0  0  0  0  0  0  0
  -11.7521   64.6569  -18.9638 C   0  0  0  0  0  0  0  0  0  0  0  0
  4  3  1  0
  4  2  1  0
  2  1  1  0
  1  8  1  0
  8  9  1  0
  9 10  2  0
  9 11  1  0
 11 12  1  0
 11 13  1  0
  4  5  1  0
  5  6  1  0
  5  7  1  0
M  END
> <minimizedAffinity>
-3.23665

> <CNNscore>
0.3065612316

> <CNNaffinity>
2.9939792156

> <CNN_VS>
0.9178379774

> <CNNaffinity_variance>
0.5754718781

$$$$



 13 12  0  0  0  0  0  0  0  0999 V2000
  -10.1731   66.0131  -17.9936 C   0  0  0  0  0  0  0  0  0  0  0  0
   -9.9114   66.2041  -16.5003 C   0  0  0  0  0  0  0  0  0  0  0  0
  -12.1558   67.4142  -16.6386 C   0  0  0  0  0  0  0  0  0  0  0  0
  -11.1475   66.7060  -15.7219 C   0  0  0  0  0  0  0  0  0  0  0  0
  -11.7199   65.5916  -14.9325 N   0  0  0  0  0  0  0  0  0  0  0  0
  -12.8386   64.9451  -15.6194 C   0  0  0  0  0  0  0  0  0  0  0  0
  -10.7501   64.5914  -14.4900 C   0  0  0  0  0  0  0  0  0  0  0  0
   -9.4598   64.8590  -18.4687 O   0  0  0  0  0  0  0  0  0  0  0  0
  -10.1695   63.6988  -18.5337 C   0  0  0  0  0  0  0  0  0  0  0  0
  -10.4394   63.0143  -17.5537 O   0  0  0  0  0  0  0  0  0  0  0  0
  -10.5442   63.3788  -19.8286 N   0  0  0  0  0  0  0  0  0  0  0  0
  -11.1858   62.1035  -20.0807 C   0  0  0  0  0  0  0  0  0  0  0  0
  -10.0987   64.1307  -20.9884 C   0  0  0  0  0  0  0  0  0  0  0  0
  4  3  1  0
  4  2  1  0
  2  1  1  0
  1  8  1  0
  8  9  1  0
  9 10  2  0
  9 11  1  0
 11 12  1  0
 11 13  1  0
  4  5  1  0
  5  6  1  0
  5  7  1  0
M  END
> <minimizedAffinity>
-3.87757

> <CNNscore>
0.3010849953

> <CNNaffinity>
3.4034354687

> <CNN_VS>
1.0247234106

> <CNNaffinity_variance>
0.5771094561

$$$$
