


 27 27  0  0  0  0  0  0  0  0999 V2000
   22.8043   -4.6166   20.9085 C   0  0  0  0  0  0  0  0  0  0  0  0
   22.3682   -5.0004   19.4814 C   0  0  0  0  0  0  0  0  0  0  0  0
   21.7942   -6.3595   19.5544 N   0  0  0  0  0  0  0  0  0  0  0  0
   21.7827   -6.7423   20.9762 C   0  0  0  0  0  0  0  0  0  0  0  0
   23.0159   -6.0048   21.5559 C   0  0  0  0  0  0  0  0  0  0  0  0
   22.3679   -7.0119   19.0200 H   0  0  0  0  0  0  0  0  0  0  0  0
   24.1234   -2.8589   22.1612 C   0  0  0  0  0  0  0  0  0  0  0  0
   23.8723   -3.5383   21.0288 C   0  0  0  0  0  0  0  0  0  0  0  0
   24.5949   -3.1697   19.7577 C   0  0  0  0  0  0  0  0  0  0  0  0
   21.7431   -8.2600   21.2534 C   0  0  0  0  0  0  0  0  0  0  0  0
   20.8031   -8.8072   22.4014 C   0  0  0  0  0  0  0  0  0  0  0  0
   20.3478  -10.2424   22.0638 C   0  0  0  0  0  0  0  0  0  0  0  0
   21.5841   -8.8197   23.7251 C   0  0  0  0  0  0  0  0  0  0  0  0
   19.5673   -7.8311   22.4298 C   0  0  0  0  0  0  0  0  0  0  0  0
   18.3280   -7.9348   23.4110 C   0  0  0  0  0  0  0  0  0  0  0  0
   17.2332   -8.8716   22.9040 C   0  0  0  0  0  0  0  0  0  0  0  0
   18.8244   -8.4359   24.7861 C   0  0  0  0  0  0  0  0  0  0  0  0
   17.7915   -6.4539   23.5556 C   0  0  0  0  0  0  0  0  0  0  0  0
   18.4579   -5.3418   24.4306 C   0  0  0  0  0  0  0  0  0  0  0  0
   17.7854   -4.0009   24.0311 C   0  0  0  0  0  0  0  0  0  0  0  0
   19.9656   -5.1872   24.2064 C   0  0  0  0  0  0  0  0  0  0  0  0
   18.1825   -5.5382   25.9345 C   0  0  0  0  0  0  0  0  0  0  0  0
   24.3607   -6.6738   21.1904 C   0  0  0  0  0  0  0  0  0  0  0  0
   24.4745   -6.8485   19.7016 C   0  0  0  0  0  0  0  0  0  0  0  0
   23.5673   -6.7830   18.8902 O   0  0  0  0  0  0  0  0  0  0  0  0
   25.7291   -7.1292   19.3014 O   0  0  0  0  0  0  0  0  0  0  0  0
   26.4217   -7.1780   19.9306 H   0  0  0  0  0  0  0  0  0  0  0  0
  7  8  2  0
  8  9  1  0
  1  8  1  0
  1  2  1  0
  2  3  1  0
  3  4  1  0
  4 10  1  0
 10 11  1  0
 11 12  1  0
 11 13  1  0
 11 14  1  0
 14 15  1  0
 15 16  1  0
 15 17  1  0
 15 18  1  0
 18 19  1  0
 19 20  1  0
 19 21  1  0
 19 22  1  0
  4  5  1  0
  5 23  1  0
 23 24  1  0
 24 25  2  0
 24 26  1  0
  5  1  1  0
  3  6  1  0
 26 27  1  0
M  END
> <minimizedAffinity>
-5.29131

> <CNNscore>
0.1389317662

> <CNNaffinity>
4.0209941864

> <CNN_VS>
0.5586438179

> <CNNaffinity_variance>
1.0584987402

$$$$



 27 27  0  0  0  0  0  0  0  0999 V2000
   26.2703   -0.4159   18.4592 C   0  0  0  0  0  0  0  0  0  0  0  0
   27.5889   -0.8309   19.1398 C   0  0  0  0  0  0  0  0  0  0  0  0
   27.2302   -1.6415   20.3215 N   0  0  0  0  0  0  0  0  0  0  0  0
   25.7667   -1.8026   20.3005 C   0  0  0  0  0  0  0  0  0  0  0  0
   25.2715   -0.4929   19.6371 C   0  0  0  0  0  0  0  0  0  0  0  0
   27.5184   -1.1637   21.1753 H   0  0  0  0  0  0  0  0  0  0  0  0
   25.2752    1.2659   16.8530 C   0  0  0  0  0  0  0  0  0  0  0  0
   26.3206    0.8187   17.5698 C   0  0  0  0  0  0  0  0  0  0  0  0
   27.6650    1.4877   17.4320 C   0  0  0  0  0  0  0  0  0  0  0  0
   25.1164   -2.1282   21.6618 C   0  0  0  0  0  0  0  0  0  0  0  0
   24.9215   -3.6414   22.0779 C   0  0  0  0  0  0  0  0  0  0  0  0
   25.5125   -4.5624   20.9899 C   0  0  0  0  0  0  0  0  0  0  0  0
   25.6497   -3.8930   23.4078 C   0  0  0  0  0  0  0  0  0  0  0  0
   23.3636   -3.8474   22.1852 C   0  0  0  0  0  0  0  0  0  0  0  0
   22.6142   -5.2427   22.2147 C   0  0  0  0  0  0  0  0  0  0  0  0
   22.2282   -5.7502   20.8266 C   0  0  0  0  0  0  0  0  0  0  0  0
   23.5306   -6.2839   22.8961 C   0  0  0  0  0  0  0  0  0  0  0  0
   21.3340   -5.0044   23.1125 C   0  0  0  0  0  0  0  0  0  0  0  0
   19.8572   -5.0749   22.6024 C   0  0  0  0  0  0  0  0  0  0  0  0
   19.5682   -6.5670   22.2858 C   0  0  0  0  0  0  0  0  0  0  0  0
   19.5966   -4.2726   21.3235 C   0  0  0  0  0  0  0  0  0  0  0  0
   18.8442   -4.6535   23.6852 C   0  0  0  0  0  0  0  0  0  0  0  0
   25.3139    0.7297   20.5822 C   0  0  0  0  0  0  0  0  0  0  0  0
   23.9606    1.3791   20.6642 C   0  0  0  0  0  0  0  0  0  0  0  0
   23.5051    2.2105   19.8979 O   0  0  0  0  0  0  0  0  0  0  0  0
   23.2479    0.9720   21.7315 O   0  0  0  0  0  0  0  0  0  0  0  0
   23.6041    0.3325   22.3165 H   0  0  0  0  0  0  0  0  0  0  0  0
  7  8  2  0
  8  9  1  0
  1  8  1  0
  1  2  1  0
  2  3  1  0
  3  4  1  0
  4 10  1  0
 10 11  1  0
 11 12  1  0
 11 13  1  0
 11 14  1  0
 14 15  1  0
 15 16  1  0
 15 17  1  0
 15 18  1  0
 18 19  1  0
 19 20  1  0
 19 21  1  0
 19 22  1  0
  4  5  1  0
  5 23  1  0
 23 24  1  0
 24 25  2  0
 24 26  1  0
  5  1  1  0
  3  6  1  0
 26 27  1  0
M  END
> <minimizedAffinity>
-4.80439

> <CNNscore>
0.1302533448

> <CNNaffinity>
3.4132261276

> <CNN_VS>
0.4445841312

> <CNNaffinity_variance>
1.4575484991

$$$$



 27 27  0  0  0  0  0  0  0  0999 V2000
   22.6782    5.5007   16.6710 C   0  0  0  0  0  0  0  0  0  0  0  0
   23.6762    6.4004   17.4250 C   0  0  0  0  0  0  0  0  0  0  0  0
   24.5281    5.5125   18.2424 N   0  0  0  0  0  0  0  0  0  0  0  0
   24.1379    4.1300   17.9189 C   0  0  0  0  0  0  0  0  0  0  0  0
   22.6304    4.2525   17.5825 C   0  0  0  0  0  0  0  0  0  0  0  0
   24.3770    5.6968   19.2342 H   0  0  0  0  0  0  0  0  0  0  0  0
   20.5364    5.5894   15.3281 C   0  0  0  0  0  0  0  0  0  0  0  0
   21.3902    6.1589   16.1961 C   0  0  0  0  0  0  0  0  0  0  0  0
   21.1483    7.5703   16.6688 C   0  0  0  0  0  0  0  0  0  0  0  0
   24.4808    3.0762   18.9931 C   0  0  0  0  0  0  0  0  0  0  0  0
   25.6173    2.0175   18.6957 C   0  0  0  0  0  0  0  0  0  0  0  0
   25.4746    1.4898   17.2527 C   0  0  0  0  0  0  0  0  0  0  0  0
   26.9875    2.6950   18.8563 C   0  0  0  0  0  0  0  0  0  0  0  0
   25.3853    0.8540   19.7317 C   0  0  0  0  0  0  0  0  0  0  0  0
   26.3887   -0.3356   20.0278 C   0  0  0  0  0  0  0  0  0  0  0  0
   27.2983   -0.6666   18.8461 C   0  0  0  0  0  0  0  0  0  0  0  0
   27.2612    0.0428   21.2461 C   0  0  0  0  0  0  0  0  0  0  0  0
   25.4694   -1.5665   20.4040 C   0  0  0  0  0  0  0  0  0  0  0  0
   24.3954   -1.5672   21.5410 C   0  0  0  0  0  0  0  0  0  0  0  0
   23.4139   -2.7272   21.2232 C   0  0  0  0  0  0  0  0  0  0  0  0
   23.5733   -0.2772   21.6276 C   0  0  0  0  0  0  0  0  0  0  0  0
   25.0065   -1.8772   22.9218 C   0  0  0  0  0  0  0  0  0  0  0  0
   21.7328    4.4156   18.8304 C   0  0  0  0  0  0  0  0  0  0  0  0
   20.8267    3.2262   18.9864 C   0  0  0  0  0  0  0  0  0  0  0  0
   20.6071    2.6090   20.0143 O   0  0  0  0  0  0  0  0  0  0  0  0
   20.2568    2.8461   17.8272 O   0  0  0  0  0  0  0  0  0  0  0  0
   20.4300    3.3252   17.0408 H   0  0  0  0  0  0  0  0  0  0  0  0
  7  8  2  0
  8  9  1  0
  1  8  1  0
  1  2  1  0
  2  3  1  0
  3  4  1  0
  4 10  1  0
 10 11  1  0
 11 12  1  0
 11 13  1  0
 11 14  1  0
 14 15  1  0
 15 16  1  0
 15 17  1  0
 15 18  1  0
 18 19  1  0
 19 20  1  0
 19 21  1  0
 19 22  1  0
  4  5  1  0
  5 23  1  0
 23 24  1  0
 24 25  2  0
 24 26  1  0
  5  1  1  0
  3  6  1  0
 26 27  1  0
M  END
> <minimizedAffinity>
-5.81540

> <CNNscore>
0.1237137839

> <CNNaffinity>
4.4469046593

> <CNN_VS>
0.5501434207

> <CNNaffinity_variance>
1.1137784719

$$$$



 27 27  0  0  0  0  0  0  0  0999 V2000
   21.0018    5.7646   15.4168 C   0  0  0  0  0  0  0  0  0  0  0  0
   20.2177    7.0903   15.3762 C   0  0  0  0  0  0  0  0  0  0  0  0
   21.1045    8.1353   15.9271 N   0  0  0  0  0  0  0  0  0  0  0  0
   22.4048    7.4965   16.1906 C   0  0  0  0  0  0  0  0  0  0  0  0
   22.0219    6.0379   16.5463 C   0  0  0  0  0  0  0  0  0  0  0  0
   20.7139    8.5062   16.7933 H   0  0  0  0  0  0  0  0  0  0  0  0
   20.5561    3.3518   16.0318 C   0  0  0  0  0  0  0  0  0  0  0  0
   20.1780    4.4843   15.4144 C   0  0  0  0  0  0  0  0  0  0  0  0
   18.9256    4.4981   14.5747 C   0  0  0  0  0  0  0  0  0  0  0  0
   23.2934    8.2080   17.2328 C   0  0  0  0  0  0  0  0  0  0  0  0
   23.7389    9.7026   16.9705 C   0  0  0  0  0  0  0  0  0  0  0  0
   22.5664   10.6582   17.2759 C   0  0  0  0  0  0  0  0  0  0  0  0
   24.9234   10.0409   17.8897 C   0  0  0  0  0  0  0  0  0  0  0  0
   24.1141    9.7641   15.4420 C   0  0  0  0  0  0  0  0  0  0  0  0
   23.9809   11.0356   14.5066 C   0  0  0  0  0  0  0  0  0  0  0  0
   24.4440   10.7819   13.0732 C   0  0  0  0  0  0  0  0  0  0  0  0
   22.5023   11.4849   14.4874 C   0  0  0  0  0  0  0  0  0  0  0  0
   24.8588   12.1527   15.2016 C   0  0  0  0  0  0  0  0  0  0  0  0
   24.5995   13.6913   15.0932 C   0  0  0  0  0  0  0  0  0  0  0  0
   23.6232   14.0585   16.2430 C   0  0  0  0  0  0  0  0  0  0  0  0
   23.9470   14.1259   13.7769 C   0  0  0  0  0  0  0  0  0  0  0  0
   25.8798   14.5175   15.3260 C   0  0  0  0  0  0  0  0  0  0  0  0
   21.4429    5.8838   17.9713 C   0  0  0  0  0  0  0  0  0  0  0  0
   22.1045    4.7396   18.6876 C   0  0  0  0  0  0  0  0  0  0  0  0
   23.2914    4.4624   18.6750 O   0  0  0  0  0  0  0  0  0  0  0  0
   21.2319    3.9728   19.3683 O   0  0  0  0  0  0  0  0  0  0  0  0
   20.3208    4.1918   19.3737 H   0  0  0  0  0  0  0  0  0  0  0  0
  7  8  2  0
  8  9  1  0
  1  8  1  0
  1  2  1  0
  2  3  1  0
  3  4  1  0
  4 10  1  0
 10 11  1  0
 11 12  1  0
 11 13  1  0
 11 14  1  0
 14 15  1  0
 15 16  1  0
 15 17  1  0
 15 18  1  0
 18 19  1  0
 19 20  1  0
 19 21  1  0
 19 22  1  0
  4  5  1  0
  5 23  1  0
 23 24  1  0
 24 25  2  0
 24 26  1  0
  5  1  1  0
  3  6  1  0
 26 27  1  0
M  END
> <minimizedAffinity>
-4.61343

> <CNNscore>
0.1134921312

> <CNNaffinity>
4.8187198639

> <CNN_VS>
0.5468868017

> <CNNaffinity_variance>
0.4798835218

$$$$



 27 27  0  0  0  0  0  0  0  0999 V2000
   26.3345   -4.1377   22.8158 C   0  0  0  0  0  0  0  0  0  0  0  0
   26.1996   -4.7522   24.2222 C   0  0  0  0  0  0  0  0  0  0  0  0
   24.7932   -5.1770   24.3764 N   0  0  0  0  0  0  0  0  0  0  0  0
   24.1290   -4.9310   23.0854 C   0  0  0  0  0  0  0  0  0  0  0  0
   24.8810   -3.6978   22.5247 C   0  0  0  0  0  0  0  0  0  0  0  0
   24.3414   -4.6344   25.1125 H   0  0  0  0  0  0  0  0  0  0  0  0
   28.1534   -2.5657   23.6027 C   0  0  0  0  0  0  0  0  0  0  0  0
   27.4907   -3.1705   22.6019 C   0  0  0  0  0  0  0  0  0  0  0  0
   27.8106   -2.8187   21.1709 C   0  0  0  0  0  0  0  0  0  0  0  0
   22.5940   -4.7835   23.1477 C   0  0  0  0  0  0  0  0  0  0  0  0
   21.6875   -6.0346   22.8097 C   0  0  0  0  0  0  0  0  0  0  0  0
   21.3718   -6.0578   21.2994 C   0  0  0  0  0  0  0  0  0  0  0  0
   22.4424   -7.3178   23.1912 C   0  0  0  0  0  0  0  0  0  0  0  0
   20.3671   -5.8309   23.6439 C   0  0  0  0  0  0  0  0  0  0  0  0
   19.0057   -5.2379   23.0923 C   0  0  0  0  0  0  0  0  0  0  0  0
   18.2017   -4.4858   24.1512 C   0  0  0  0  0  0  0  0  0  0  0  0
   19.3204   -4.2790   21.9218 C   0  0  0  0  0  0  0  0  0  0  0  0
   18.2036   -6.4865   22.5454 C   0  0  0  0  0  0  0  0  0  0  0  0
   18.1745   -7.8973   23.2201 C   0  0  0  0  0  0  0  0  0  0  0  0
   16.8224   -8.5499   22.8252 C   0  0  0  0  0  0  0  0  0  0  0  0
   18.2405   -7.8617   24.7504 C   0  0  0  0  0  0  0  0  0  0  0  0
   19.2816   -8.8252   22.6823 C   0  0  0  0  0  0  0  0  0  0  0  0
   24.4753   -2.3692   23.2028 C   0  0  0  0  0  0  0  0  0  0  0  0
   24.5337   -1.2357   22.2170 C   0  0  0  0  0  0  0  0  0  0  0  0
   24.0371   -1.2133   21.1040 O   0  0  0  0  0  0  0  0  0  0  0  0
   25.2448   -0.1851   22.6681 O   0  0  0  0  0  0  0  0  0  0  0  0
   25.6238   -0.2090   23.5247 H   0  0  0  0  0  0  0  0  0  0  0  0
  7  8  2  0
  8  9  1  0
  1  8  1  0
  1  2  1  0
  2  3  1  0
  3  4  1  0
  4 10  1  0
 10 11  1  0
 11 12  1  0
 11 13  1  0
 11 14  1  0
 14 15  1  0
 15 16  1  0
 15 17  1  0
 15 18  1  0
 18 19  1  0
 19 20  1  0
 19 21  1  0
 19 22  1  0
  4  5  1  0
  5 23  1  0
 23 24  1  0
 24 25  2  0
 24 26  1  0
  5  1  1  0
  3  6  1  0
 26 27  1  0
M  END
> <minimizedAffinity>
-4.66315

> <CNNscore>
0.1132860780

> <CNNaffinity>
3.8699123859

> <CNN_VS>
0.4384071827

> <CNNaffinity_variance>
0.8598620296

$$$$



 27 27  0  0  0  0  0  0  0  0999 V2000
   23.0843   11.4339   15.3437 C   0  0  0  0  0  0  0  0  0  0  0  0
   24.5016   11.2039   14.7848 C   0  0  0  0  0  0  0  0  0  0  0  0
   24.4951   11.6689   13.3827 N   0  0  0  0  0  0  0  0  0  0  0  0
   23.1670   12.2535   13.1329 C   0  0  0  0  0  0  0  0  0  0  0  0
   22.2331   11.4276   14.0529 C   0  0  0  0  0  0  0  0  0  0  0  0
   24.6573   10.8839   12.7519 H   0  0  0  0  0  0  0  0  0  0  0  0
   22.7704    9.2451   16.5723 C   0  0  0  0  0  0  0  0  0  0  0  0
   22.6770   10.5856   16.5406 C   0  0  0  0  0  0  0  0  0  0  0  0
   22.0415   11.3203   17.6940 C   0  0  0  0  0  0  0  0  0  0  0  0
   22.7362   12.3106   11.6519 C   0  0  0  0  0  0  0  0  0  0  0  0
   22.2636   13.6911   11.0419 C   0  0  0  0  0  0  0  0  0  0  0  0
   20.9988   14.1813   11.7775 C   0  0  0  0  0  0  0  0  0  0  0  0
   23.3864   14.7261   11.2158 C   0  0  0  0  0  0  0  0  0  0  0  0
   21.9382   13.3900    9.5305 C   0  0  0  0  0  0  0  0  0  0  0  0
   20.4895   13.2396    8.9076 C   0  0  0  0  0  0  0  0  0  0  0  0
   19.4926   12.5709    9.8523 C   0  0  0  0  0  0  0  0  0  0  0  0
   19.9637   14.6428    8.5296 C   0  0  0  0  0  0  0  0  0  0  0  0
   20.6928   12.3846    7.5926 C   0  0  0  0  0  0  0  0  0  0  0  0
   19.5358   11.8079    6.7121 C   0  0  0  0  0  0  0  0  0  0  0  0
   19.3464   10.3284    7.1422 C   0  0  0  0  0  0  0  0  0  0  0  0
   19.8279   11.8178    5.2081 C   0  0  0  0  0  0  0  0  0  0  0  0
   18.1921   12.5155    6.9763 C   0  0  0  0  0  0  0  0  0  0  0  0
   21.9240   10.0148   13.5069 C   0  0  0  0  0  0  0  0  0  0  0  0
   20.6686   10.0328   12.6801 C   0  0  0  0  0  0  0  0  0  0  0  0
   19.6476   10.6535   12.9214 O   0  0  0  0  0  0  0  0  0  0  0  0
   20.7446    9.2398   11.5947 O   0  0  0  0  0  0  0  0  0  0  0  0
   21.5326    8.7655   11.4153 H   0  0  0  0  0  0  0  0  0  0  0  0
  7  8  2  0
  8  9  1  0
  1  8  1  0
  1  2  1  0
  2  3  1  0
  3  4  1  0
  4 10  1  0
 10 11  1  0
 11 12  1  0
 11 13  1  0
 11 14  1  0
 14 15  1  0
 15 16  1  0
 15 17  1  0
 15 18  1  0
 18 19  1  0
 19 20  1  0
 19 21  1  0
 19 22  1  0
  4  5  1  0
  5 23  1  0
 23 24  1  0
 24 25  2  0
 24 26  1  0
  5  1  1  0
  3  6  1  0
 26 27  1  0
M  END
> <minimizedAffinity>
-5.14041

> <CNNscore>
0.1120022312

> <CNNaffinity>
4.1511330605

> <CNN_VS>
0.4649361670

> <CNNaffinity_variance>
0.6725015640

$$$$



 27 27  0  0  0  0  0  0  0  0999 V2000
   22.9266    5.4374   16.8416 C   0  0  0  0  0  0  0  0  0  0  0  0
   23.9566    6.2986   17.5974 C   0  0  0  0  0  0  0  0  0  0  0  0
   24.8098    5.3740   18.3715 N   0  0  0  0  0  0  0  0  0  0  0  0
   24.3880    4.0079   18.0194 C   0  0  0  0  0  0  0  0  0  0  0  0
   22.8760    4.1657   17.7198 C   0  0  0  0  0  0  0  0  0  0  0  0
   24.6835    5.5336   19.3710 H   0  0  0  0  0  0  0  0  0  0  0  0
   21.2481    7.3296   16.8774 C   0  0  0  0  0  0  0  0  0  0  0  0
   21.6406    6.1307   16.4132 C   0  0  0  0  0  0  0  0  0  0  0  0
   20.7346    5.3491   15.4955 C   0  0  0  0  0  0  0  0  0  0  0  0
   24.7350    2.9192   19.0569 C   0  0  0  0  0  0  0  0  0  0  0  0
   25.9128    1.9102   18.7473 C   0  0  0  0  0  0  0  0  0  0  0  0
   25.4509    0.8737   17.7015 C   0  0  0  0  0  0  0  0  0  0  0  0
   27.1113    2.6950   18.1906 C   0  0  0  0  0  0  0  0  0  0  0  0
   26.2285    1.2036   20.1191 C   0  0  0  0  0  0  0  0  0  0  0  0
   25.2845    0.1771   20.8705 C   0  0  0  0  0  0  0  0  0  0  0  0
   23.8672    0.7052   21.0843 C   0  0  0  0  0  0  0  0  0  0  0  0
   25.2177   -1.1295   20.0478 C   0  0  0  0  0  0  0  0  0  0  0  0
   26.0022   -0.1090   22.2506 C   0  0  0  0  0  0  0  0  0  0  0  0
   27.2514   -1.0319   22.4355 C   0  0  0  0  0  0  0  0  0  0  0  0
   26.7104   -2.4637   22.6950 C   0  0  0  0  0  0  0  0  0  0  0  0
   28.1411   -0.6520   23.6236 C   0  0  0  0  0  0  0  0  0  0  0  0
   28.1113   -1.1140   21.1589 C   0  0  0  0  0  0  0  0  0  0  0  0
   22.0087    4.3101   18.9912 C   0  0  0  0  0  0  0  0  0  0  0  0
   20.9907    3.2062   19.0623 C   0  0  0  0  0  0  0  0  0  0  0  0
   20.6819    2.5641   20.0513 O   0  0  0  0  0  0  0  0  0  0  0  0
   20.4245    2.9380   17.8705 O   0  0  0  0  0  0  0  0  0  0  0  0
   20.6665    3.4355   17.1143 H   0  0  0  0  0  0  0  0  0  0  0  0
  7  8  2  0
  8  9  1  0
  1  8  1  0
  1  2  1  0
  2  3  1  0
  3  4  1  0
  4 10  1  0
 10 11  1  0
 11 12  1  0
 11 13  1  0
 11 14  1  0
 14 15  1  0
 15 16  1  0
 15 17  1  0
 15 18  1  0
 18 19  1  0
 19 20  1  0
 19 21  1  0
 19 22  1  0
  4  5  1  0
  5 23  1  0
 23 24  1  0
 24 25  2  0
 24 26  1  0
  5  1  1  0
  3  6  1  0
 26 27  1  0
M  END
> <minimizedAffinity>
-5.43979

> <CNNscore>
0.1105464995

> <CNNaffinity>
4.3452849388

> <CNN_VS>
0.4803560376

> <CNNaffinity_variance>
0.6621300578

$$$$



 27 27  0  0  0  0  0  0  0  0999 V2000
    6.1192   -5.3080   17.9729 C   0  0  0  0  0  0  0  0  0  0  0  0
    7.2569   -5.7862   18.8953 C   0  0  0  0  0  0  0  0  0  0  0  0
    8.0511   -6.7689   18.1301 N   0  0  0  0  0  0  0  0  0  0  0  0
    7.4878   -6.8070   16.7702 C   0  0  0  0  0  0  0  0  0  0  0  0
    5.9861   -6.4989   16.9955 C   0  0  0  0  0  0  0  0  0  0  0  0
    7.9829   -7.6894   18.5641 H   0  0  0  0  0  0  0  0  0  0  0  0
    3.7353   -4.4628   18.0136 C   0  0  0  0  0  0  0  0  0  0  0  0
    4.8873   -4.7273   18.6536 C   0  0  0  0  0  0  0  0  0  0  0  0
    5.0439   -4.3453   20.1039 C   0  0  0  0  0  0  0  0  0  0  0  0
    7.7742   -8.0955   15.9703 C   0  0  0  0  0  0  0  0  0  0  0  0
    8.5815   -9.2661   16.6625 C   0  0  0  0  0  0  0  0  0  0  0  0
    7.7760   -9.8213   17.8558 C   0  0  0  0  0  0  0  0  0  0  0  0
    8.8127  -10.3888   15.6385 C   0  0  0  0  0  0  0  0  0  0  0  0
    9.9227   -8.6092   17.1629 C   0  0  0  0  0  0  0  0  0  0  0  0
   11.2066   -9.3913   17.6622 C   0  0  0  0  0  0  0  0  0  0  0  0
   10.9414  -10.2703   18.8830 C   0  0  0  0  0  0  0  0  0  0  0  0
   11.7294  -10.2754   16.5074 C   0  0  0  0  0  0  0  0  0  0  0  0
   12.2729   -8.2690   17.9867 C   0  0  0  0  0  0  0  0  0  0  0  0
   12.3285   -7.4443   19.3145 C   0  0  0  0  0  0  0  0  0  0  0  0
   13.3133   -8.1871   20.2570 C   0  0  0  0  0  0  0  0  0  0  0  0
   10.9848   -7.3369   20.0426 C   0  0  0  0  0  0  0  0  0  0  0  0
   12.9084   -6.0320   19.1013 C   0  0  0  0  0  0  0  0  0  0  0  0
    5.1909   -7.6965   17.5637 C   0  0  0  0  0  0  0  0  0  0  0  0
    4.1776   -8.1781   16.5630 C   0  0  0  0  0  0  0  0  0  0  0  0
    3.5890   -9.2453   16.5799 O   0  0  0  0  0  0  0  0  0  0  0  0
    3.9714   -7.3008   15.5626 O   0  0  0  0  0  0  0  0  0  0  0  0
    4.4272   -6.4822   15.5558 H   0  0  0  0  0  0  0  0  0  0  0  0
  7  8  2  0
  8  9  1  0
  1  8  1  0
  1  2  1  0
  2  3  1  0
  3  4  1  0
  4 10  1  0
 10 11  1  0
 11 12  1  0
 11 13  1  0
 11 14  1  0
 14 15  1  0
 15 16  1  0
 15 17  1  0
 15 18  1  0
 18 19  1  0
 19 20  1  0
 19 21  1  0
 19 22  1  0
  4  5  1  0
  5 23  1  0
 23 24  1  0
 24 25  2  0
 24 26  1  0
  5  1  1  0
  3  6  1  0
 26 27  1  0
M  END
> <minimizedAffinity>
-4.64916

> <CNNscore>
0.1003094241

> <CNNaffinity>
4.0711712837

> <CNN_VS>
0.4083768427

> <CNNaffinity_variance>
0.7358910441

$$$$



 27 27  0  0  0  0  0  0  0  0999 V2000
   23.3129   -3.8468   22.1311 C   0  0  0  0  0  0  0  0  0  0  0  0
   22.2162   -3.6943   21.0596 C   0  0  0  0  0  0  0  0  0  0  0  0
   21.6448   -5.0370   20.8301 N   0  0  0  0  0  0  0  0  0  0  0  0
   22.2888   -5.9454   21.7936 C   0  0  0  0  0  0  0  0  0  0  0  0
   23.7016   -5.3350   21.9725 C   0  0  0  0  0  0  0  0  0  0  0  0
   21.8385   -5.3425   19.8764 H   0  0  0  0  0  0  0  0  0  0  0  0
   25.4382   -2.7885   23.0039 C   0  0  0  0  0  0  0  0  0  0  0  0
   24.3869   -2.7684   22.1664 C   0  0  0  0  0  0  0  0  0  0  0  0
   24.1664   -1.5770   21.2688 C   0  0  0  0  0  0  0  0  0  0  0  0
   22.2701   -7.4401   21.4094 C   0  0  0  0  0  0  0  0  0  0  0  0
   21.7194   -8.4945   22.4515 C   0  0  0  0  0  0  0  0  0  0  0  0
   20.4096   -9.1159   21.9228 C   0  0  0  0  0  0  0  0  0  0  0  0
   22.7668   -9.6028   22.6438 C   0  0  0  0  0  0  0  0  0  0  0  0
   21.4464   -7.6758   23.7691 C   0  0  0  0  0  0  0  0  0  0  0  0
   21.0360   -8.2881   25.1712 C   0  0  0  0  0  0  0  0  0  0  0  0
   20.2962   -9.6195   25.0553 C   0  0  0  0  0  0  0  0  0  0  0  0
   22.3135   -8.4923   26.0167 C   0  0  0  0  0  0  0  0  0  0  0  0
   20.1276   -7.1869   25.8522 C   0  0  0  0  0  0  0  0  0  0  0  0
   18.9667   -6.4182   25.1397 C   0  0  0  0  0  0  0  0  0  0  0  0
   19.6330   -5.3359   24.2483 C   0  0  0  0  0  0  0  0  0  0  0  0
   18.0085   -5.7022   26.0971 C   0  0  0  0  0  0  0  0  0  0  0  0
   18.1584   -7.3275   24.1930 C   0  0  0  0  0  0  0  0  0  0  0  0
   24.6488   -5.6173   20.7839 C   0  0  0  0  0  0  0  0  0  0  0  0
   23.9372   -5.3928   19.4788 C   0  0  0  0  0  0  0  0  0  0  0  0
   23.2668   -6.2062   18.8666 O   0  0  0  0  0  0  0  0  0  0  0  0
   24.1274   -4.1549   18.9845 O   0  0  0  0  0  0  0  0  0  0  0  0
   24.6439   -3.5347   19.4604 H   0  0  0  0  0  0  0  0  0  0  0  0
  7  8  2  0
  8  9  1  0
  1  8  1  0
  1  2  1  0
  2  3  1  0
  3  4  1  0
  4 10  1  0
 10 11  1  0
 11 12  1  0
 11 13  1  0
 11 14  1  0
 14 15  1  0
 15 16  1  0
 15 17  1  0
 15 18  1  0
 18 19  1  0
 19 20  1  0
 19 21  1  0
 19 22  1  0
  4  5  1  0
  5 23  1  0
 23 24  1  0
 24 25  2  0
 24 26  1  0
  5  1  1  0
  3  6  1  0
 26 27  1  0
M  END
> <minimizedAffinity>
-4.72694

> <CNNscore>
0.0974592566

> <CNNaffinity>
4.1600298882

> <CNN_VS>
0.4054334164

> <CNNaffinity_variance>
0.4700833857

$$$$
