


 29 30  0  0  0  0  0  0  0  0999 V2000
   32.7348   23.0121   27.8701 C   0  0  0  0  0  0  0  0  0  0  0  0
   32.6448   21.6087   28.1391 O   0  0  0  0  0  0  0  0  0  0  0  0
   32.2232   20.7649   27.0547 C   0  0  0  0  0  0  0  0  0  0  0  0
   31.5953   21.5018   25.8604 C   0  0  0  0  0  0  0  0  0  0  0  0
   30.2900   21.9479   26.2740 O   0  0  0  0  0  0  0  0  0  0  0  0
   32.4097   22.7241   25.3959 C   0  0  0  0  0  0  0  0  0  0  0  0
   33.1827   22.4031   24.2255 O   0  0  0  0  0  0  0  0  0  0  0  0
   33.3401   23.2940   26.4786 C   0  0  0  0  0  0  0  0  0  0  0  0
   33.5503   24.6915   26.2340 O   0  0  0  0  0  0  0  0  0  0  0  0
   30.3789   22.5567   27.0239 H   0  0  0  0  0  0  0  0  0  0  0  0
   33.8310   21.7156   24.4447 H   0  0  0  0  0  0  0  0  0  0  0  0
   32.6984   25.1550   26.2539 H   0  0  0  0  0  0  0  0  0  0  0  0
   35.7199   23.9723   29.8806 C   0  0  0  0  0  0  0  0  0  0  0  0
   34.9082   23.3841   28.9949 C   0  0  0  0  0  0  0  0  0  0  0  0
   33.5473   23.6169   28.9392 N   0  0  0  0  0  0  0  0  0  0  0  0
   32.9264   24.4990   29.8170 C   0  0  0  0  0  0  0  0  0  0  0  0
   31.7225   24.7406   29.8359 O   0  0  0  0  0  0  0  0  0  0  0  0
   33.7549   25.1008   30.7301 N   0  0  0  0  0  0  0  0  0  0  0  0
   35.1123   24.9445   30.8222 C   0  0  0  0  0  0  0  0  0  0  0  0
   35.7706   25.5844   31.6368 O   0  0  0  0  0  0  0  0  0  0  0  0
   33.3321   25.7041   31.3832 H   0  0  0  0  0  0  0  0  0  0  0  0
   38.3058   23.4978   29.9003 C   0  0  0  0  0  0  0  0  0  0  0  0
   37.1188   23.7029   29.8760 C   0  0  0  0  0  0  0  0  0  0  0  0
   39.7618   23.2854   29.9336 C   0  0  0  0  0  0  0  0  0  0  0  0
   41.8985   23.5575   31.2975 C   0  0  0  0  0  0  0  0  0  0  0  0
   40.4148   23.8789   31.1807 C   0  0  0  0  0  0  0  0  0  0  0  0
   33.3946   19.8431   26.6573 C   0  0  0  0  0  0  0  0  0  0  0  0
   34.5929   20.5731   26.3883 O   0  0  0  0  0  0  0  0  0  0  0  0
   34.4436   21.1766   25.6436 H   0  0  0  0  0  0  0  0  0  0  0  0
 25 26  1  0
 26 24  1  0
 24 22  1  0
 22 23  3  0
 23 13  1  0
 13 14  2  0
 14 15  1  0
  1 15  1  0
  1  2  1  0
  2  3  1  0
  3 27  1  0
 27 28  1  0
  3  4  1  0
  4  5  1  0
  4  6  1  0
  6  7  1  0
  6  8  1  0
  8  9  1  0
 15 16  1  0
 16 17  2  0
 16 18  1  0
 18 19  1  0
 19 20  2  0
 19 13  1  0
  8  1  1  0
 28 29  1  0
  5 10  1  0
  7 11  1  0
  9 12  1  0
 18 21  1  0
M  END
> <minimizedAffinity>
-10.29877

> <CNNscore>
0.8585725427

> <CNNaffinity>
4.6637501717

> <CNN_VS>
4.0041680336

> <CNNaffinity_variance>
1.4148837328

$$$$



 29 30  0  0  0  0  0  0  0  0999 V2000
   33.5247   23.0938   27.4767 C   0  0  0  0  0  0  0  0  0  0  0  0
   32.7132   24.1060   26.8711 O   0  0  0  0  0  0  0  0  0  0  0  0
   31.8037   23.6807   25.8427 C   0  0  0  0  0  0  0  0  0  0  0  0
   32.0606   22.2708   25.2864 C   0  0  0  0  0  0  0  0  0  0  0  0
   33.2473   22.3435   24.4738 O   0  0  0  0  0  0  0  0  0  0  0  0
   32.2770   21.2087   26.3811 C   0  0  0  0  0  0  0  0  0  0  0  0
   31.0810   20.4335   26.5788 O   0  0  0  0  0  0  0  0  0  0  0  0
   32.7315   21.7938   27.7279 C   0  0  0  0  0  0  0  0  0  0  0  0
   33.4892   20.8065   28.4409 O   0  0  0  0  0  0  0  0  0  0  0  0
   33.9981   22.6205   25.0220 H   0  0  0  0  0  0  0  0  0  0  0  0
   30.3710   21.0108   26.9007 H   0  0  0  0  0  0  0  0  0  0  0  0
   34.2628   20.5504   27.9147 H   0  0  0  0  0  0  0  0  0  0  0  0
   35.9739   24.1274   30.0859 C   0  0  0  0  0  0  0  0  0  0  0  0
   35.4090   23.5677   29.0103 C   0  0  0  0  0  0  0  0  0  0  0  0
   34.0576   23.6463   28.7335 N   0  0  0  0  0  0  0  0  0  0  0  0
   33.1845   24.3303   29.5727 C   0  0  0  0  0  0  0  0  0  0  0  0
   31.9727   24.4262   29.3983 O   0  0  0  0  0  0  0  0  0  0  0  0
   33.7593   24.9018   30.6797 N   0  0  0  0  0  0  0  0  0  0  0  0
   35.0909   24.8934   30.9994 C   0  0  0  0  0  0  0  0  0  0  0  0
   35.5106   25.4954   31.9832 O   0  0  0  0  0  0  0  0  0  0  0  0
   33.1553   25.3631   31.3055 H   0  0  0  0  0  0  0  0  0  0  0  0
   38.5605   23.9565   30.5247 C   0  0  0  0  0  0  0  0  0  0  0  0
   37.3775   24.0250   30.3067 C   0  0  0  0  0  0  0  0  0  0  0  0
   40.0055   23.9106   30.8008 C   0  0  0  0  0  0  0  0  0  0  0  0
   41.7630   23.5325   32.6085 C   0  0  0  0  0  0  0  0  0  0  0  0
   40.3190   23.9006   32.2959 C   0  0  0  0  0  0  0  0  0  0  0  0
   30.3582   23.8879   26.3403 C   0  0  0  0  0  0  0  0  0  0  0  0
   29.6212   24.7861   25.5090 O   0  0  0  0  0  0  0  0  0  0  0  0
   30.0490   25.6567   25.5146 H   0  0  0  0  0  0  0  0  0  0  0  0
 25 26  1  0
 26 24  1  0
 24 22  1  0
 22 23  3  0
 23 13  1  0
 13 14  2  0
 14 15  1  0
  1 15  1  0
  1  2  1  0
  2  3  1  0
  3 27  1  0
 27 28  1  0
  3  4  1  0
  4  5  1  0
  4  6  1  0
  6  7  1  0
  6  8  1  0
  8  9  1  0
 15 16  1  0
 16 17  2  0
 16 18  1  0
 18 19  1  0
 19 20  2  0
 19 13  1  0
  8  1  1  0
 28 29  1  0
  5 10  1  0
  7 11  1  0
  9 12  1  0
 18 21  1  0
M  END
> <minimizedAffinity>
-10.19851

> <CNNscore>
0.7747792006

> <CNNaffinity>
4.5366110802

> <CNN_VS>
3.5148718357

> <CNNaffinity_variance>
0.6558278203

$$$$



 29 30  0  0  0  0  0  0  0  0999 V2000
   33.1477   23.5401   28.7310 C   0  0  0  0  0  0  0  0  0  0  0  0
   34.0683   22.9549   27.8036 O   0  0  0  0  0  0  0  0  0  0  0  0
   33.6274   22.8305   26.4413 C   0  0  0  0  0  0  0  0  0  0  0  0
   32.1171   23.0181   26.2244 C   0  0  0  0  0  0  0  0  0  0  0  0
   31.4634   21.8449   26.7445 O   0  0  0  0  0  0  0  0  0  0  0  0
   31.5437   24.2582   26.9360 C   0  0  0  0  0  0  0  0  0  0  0  0
   31.3644   25.3398   26.0041 O   0  0  0  0  0  0  0  0  0  0  0  0
   32.3989   24.7425   28.1179 C   0  0  0  0  0  0  0  0  0  0  0  0
   31.5591   25.4185   29.0638 O   0  0  0  0  0  0  0  0  0  0  0  0
   31.6501   21.7645   27.6930 H   0  0  0  0  0  0  0  0  0  0  0  0
   32.2268   25.6077   25.6499 H   0  0  0  0  0  0  0  0  0  0  0  0
   30.8736   24.8096   29.3805 H   0  0  0  0  0  0  0  0  0  0  0  0
   36.0515   24.3892   30.9040 C   0  0  0  0  0  0  0  0  0  0  0  0
   35.2953   23.9516   29.8911 C   0  0  0  0  0  0  0  0  0  0  0  0
   33.9140   23.9392   29.9237 N   0  0  0  0  0  0  0  0  0  0  0  0
   33.2111   24.3946   31.0340 C   0  0  0  0  0  0  0  0  0  0  0  0
   31.9875   24.3970   31.1386 O   0  0  0  0  0  0  0  0  0  0  0  0
   33.9834   24.8399   32.0770 N   0  0  0  0  0  0  0  0  0  0  0  0
   35.3507   24.9126   32.1022 C   0  0  0  0  0  0  0  0  0  0  0  0
   35.9426   25.3918   33.0647 O   0  0  0  0  0  0  0  0  0  0  0  0
   33.5080   25.1361   32.8866 H   0  0  0  0  0  0  0  0  0  0  0  0
   38.6739   24.3579   30.7176 C   0  0  0  0  0  0  0  0  0  0  0  0
   37.4726   24.3920   30.8024 C   0  0  0  0  0  0  0  0  0  0  0  0
   40.1422   24.2899   30.6425 C   0  0  0  0  0  0  0  0  0  0  0  0
   42.2546   23.4661   31.8082 C   0  0  0  0  0  0  0  0  0  0  0  0
   40.7762   23.8040   31.9447 C   0  0  0  0  0  0  0  0  0  0  0  0
   34.4916   23.7494   25.5531 C   0  0  0  0  0  0  0  0  0  0  0  0
   35.5768   24.3365   26.2733 O   0  0  0  0  0  0  0  0  0  0  0  0
   35.2279   24.8861   26.9924 H   0  0  0  0  0  0  0  0  0  0  0  0
 25 26  1  0
 26 24  1  0
 24 22  1  0
 22 23  3  0
 23 13  1  0
 13 14  2  0
 14 15  1  0
  1 15  1  0
  1  2  1  0
  2  3  1  0
  3 27  1  0
 27 28  1  0
  3  4  1  0
  4  5  1  0
  4  6  1  0
  6  7  1  0
  6  8  1  0
  8  9  1  0
 15 16  1  0
 16 17  2  0
 16 18  1  0
 18 19  1  0
 19 20  2  0
 19 13  1  0
  8  1  1  0
 28 29  1  0
  5 10  1  0
  7 11  1  0
  9 12  1  0
 18 21  1  0
M  END
> <minimizedAffinity>
-9.31797

> <CNNscore>
0.6649916172

> <CNNaffinity>
4.2463612556

> <CNN_VS>
2.8237946033

> <CNNaffinity_variance>
0.9652037621

$$$$



 29 30  0  0  0  0  0  0  0  0999 V2000
   34.0349   23.4467   29.2198 C   0  0  0  0  0  0  0  0  0  0  0  0
   34.8457   23.2071   28.0643 O   0  0  0  0  0  0  0  0  0  0  0  0
   34.1662   23.1180   26.8009 C   0  0  0  0  0  0  0  0  0  0  0  0
   32.6412   22.9457   26.8907 C   0  0  0  0  0  0  0  0  0  0  0  0
   32.3905   21.5998   27.3378 O   0  0  0  0  0  0  0  0  0  0  0  0
   31.9693   23.9244   27.8724 C   0  0  0  0  0  0  0  0  0  0  0  0
   31.3608   25.0175   27.1615 O   0  0  0  0  0  0  0  0  0  0  0  0
   32.9248   24.4817   28.9397 C   0  0  0  0  0  0  0  0  0  0  0  0
   32.1745   24.8268   30.1124 O   0  0  0  0  0  0  0  0  0  0  0  0
   32.7863   21.4712   28.2140 H   0  0  0  0  0  0  0  0  0  0  0  0
   32.0469   25.5262   26.7019 H   0  0  0  0  0  0  0  0  0  0  0  0
   31.7247   24.0375   30.4523 H   0  0  0  0  0  0  0  0  0  0  0  0
   37.1669   24.2784   31.0565 C   0  0  0  0  0  0  0  0  0  0  0  0
   36.2979   23.8044   30.1568 C   0  0  0  0  0  0  0  0  0  0  0  0
   34.9270   23.8988   30.3009 N   0  0  0  0  0  0  0  0  0  0  0  0
   34.3553   24.5091   31.4122 C   0  0  0  0  0  0  0  0  0  0  0  0
   33.1483   24.6131   31.6136 O   0  0  0  0  0  0  0  0  0  0  0  0
   35.2434   24.9923   32.3397 N   0  0  0  0  0  0  0  0  0  0  0  0
   36.6095   24.9644   32.2479 C   0  0  0  0  0  0  0  0  0  0  0  0
   37.3136   25.4872   33.1066 O   0  0  0  0  0  0  0  0  0  0  0  0
   34.8611   25.3990   33.1507 H   0  0  0  0  0  0  0  0  0  0  0  0
   39.7538   24.0331   30.6557 C   0  0  0  0  0  0  0  0  0  0  0  0
   38.5707   24.1649   30.8418 C   0  0  0  0  0  0  0  0  0  0  0  0
   41.1988   23.8415   30.4523 C   0  0  0  0  0  0  0  0  0  0  0  0
   43.3483   22.9958   31.5314 C   0  0  0  0  0  0  0  0  0  0  0  0
   41.9399   23.5307   31.7516 C   0  0  0  0  0  0  0  0  0  0  0  0
   34.5963   24.3091   25.9198 C   0  0  0  0  0  0  0  0  0  0  0  0
   36.0073   24.3391   25.6984 O   0  0  0  0  0  0  0  0  0  0  0  0
   36.4659   24.4363   26.5476 H   0  0  0  0  0  0  0  0  0  0  0  0
 25 26  1  0
 26 24  1  0
 24 22  1  0
 22 23  3  0
 23 13  1  0
 13 14  2  0
 14 15  1  0
  1 15  1  0
  1  2  1  0
  2  3  1  0
  3 27  1  0
 27 28  1  0
  3  4  1  0
  4  5  1  0
  4  6  1  0
  6  7  1  0
  6  8  1  0
  8  9  1  0
 15 16  1  0
 16 17  2  0
 16 18  1  0
 18 19  1  0
 19 20  2  0
 19 13  1  0
  8  1  1  0
 28 29  1  0
  5 10  1  0
  7 11  1  0
  9 12  1  0
 18 21  1  0
M  END
> <minimizedAffinity>
-8.52703

> <CNNscore>
0.4748008847

> <CNNaffinity>
4.1859202385

> <CNN_VS>
1.9874786139

> <CNNaffinity_variance>
1.0544613600

$$$$



 29 30  0  0  0  0  0  0  0  0999 V2000
   29.9792   23.3901   25.5776 C   0  0  0  0  0  0  0  0  0  0  0  0
   30.0096   21.9627   25.6856 O   0  0  0  0  0  0  0  0  0  0  0  0
   31.2853   21.3586   25.9567 C   0  0  0  0  0  0  0  0  0  0  0  0
   32.4997   22.2791   25.7539 C   0  0  0  0  0  0  0  0  0  0  0  0
   32.6689   22.4539   24.3344 O   0  0  0  0  0  0  0  0  0  0  0  0
   32.3351   23.6655   26.4050 C   0  0  0  0  0  0  0  0  0  0  0  0
   33.0519   23.7286   27.6510 O   0  0  0  0  0  0  0  0  0  0  0  0
   30.8702   24.0670   26.6407 C   0  0  0  0  0  0  0  0  0  0  0  0
   30.7640   25.4973   26.6295 O   0  0  0  0  0  0  0  0  0  0  0  0
   31.8762   22.8718   23.9633 H   0  0  0  0  0  0  0  0  0  0  0  0
   32.6715   23.0913   28.2755 H   0  0  0  0  0  0  0  0  0  0  0  0
   31.0652   25.8371   25.7723 H   0  0  0  0  0  0  0  0  0  0  0  0
   26.6609   24.0843   27.1209 C   0  0  0  0  0  0  0  0  0  0  0  0
   27.9039   23.6407   26.9034 C   0  0  0  0  0  0  0  0  0  0  0  0
   28.5749   23.8143   25.7081 N   0  0  0  0  0  0  0  0  0  0  0  0
   27.9873   24.4787   24.6369 C   0  0  0  0  0  0  0  0  0  0  0  0
   28.5168   24.6541   23.5428 O   0  0  0  0  0  0  0  0  0  0  0  0
   26.7104   24.9311   24.8544 N   0  0  0  0  0  0  0  0  0  0  0  0
   25.9984   24.8251   26.0195 C   0  0  0  0  0  0  0  0  0  0  0  0
   24.8832   25.3258   26.1289 O   0  0  0  0  0  0  0  0  0  0  0  0
   26.2620   25.3754   24.0989 H   0  0  0  0  0  0  0  0  0  0  0  0
   25.4730   23.7512   29.4427 C   0  0  0  0  0  0  0  0  0  0  0  0
   26.0289   23.8883   28.3825 C   0  0  0  0  0  0  0  0  0  0  0  0
   24.7972   23.6221   30.7437 C   0  0  0  0  0  0  0  0  0  0  0  0
   22.9548   25.0681   31.7509 C   0  0  0  0  0  0  0  0  0  0  0  0
   23.3297   24.0433   30.6890 C   0  0  0  0  0  0  0  0  0  0  0  0
   31.2394   20.7056   27.3537 C   0  0  0  0  0  0  0  0  0  0  0  0
   30.6468   19.4059   27.3264 O   0  0  0  0  0  0  0  0  0  0  0  0
   29.7301   19.4750   27.0170 H   0  0  0  0  0  0  0  0  0  0  0  0
 25 26  1  0
 26 24  1  0
 24 22  1  0
 22 23  3  0
 23 13  1  0
 13 14  2  0
 14 15  1  0
  1 15  1  0
  1  2  1  0
  2  3  1  0
  3 27  1  0
 27 28  1  0
  3  4  1  0
  4  5  1  0
  4  6  1  0
  6  7  1  0
  6  8  1  0
  8  9  1  0
 15 16  1  0
 16 17  2  0
 16 18  1  0
 18 19  1  0
 19 20  2  0
 19 13  1  0
  8  1  1  0
 28 29  1  0
  5 10  1  0
  7 11  1  0
  9 12  1  0
 18 21  1  0
M  END
> <minimizedAffinity>
-8.93983

> <CNNscore>
0.3264502585

> <CNNaffinity>
4.9065322876

> <CNN_VS>
1.6017386913

> <CNNaffinity_variance>
0.0393973850

$$$$



 29 30  0  0  0  0  0  0  0  0999 V2000
   34.1185   23.7263   28.2556 C   0  0  0  0  0  0  0  0  0  0  0  0
   33.2748   24.6937   27.6213 O   0  0  0  0  0  0  0  0  0  0  0  0
   32.6587   24.3055   26.3821 C   0  0  0  0  0  0  0  0  0  0  0  0
   33.2498   23.0476   25.7252 C   0  0  0  0  0  0  0  0  0  0  0  0
   34.5376   23.4107   25.1926 O   0  0  0  0  0  0  0  0  0  0  0  0
   33.4347   21.8726   26.7042 C   0  0  0  0  0  0  0  0  0  0  0  0
   32.3716   20.9148   26.5530 O   0  0  0  0  0  0  0  0  0  0  0  0
   33.5241   22.3041   28.1768 C   0  0  0  0  0  0  0  0  0  0  0  0
   34.2914   21.3371   28.9072 O   0  0  0  0  0  0  0  0  0  0  0  0
   35.1149   23.7046   25.9146 H   0  0  0  0  0  0  0  0  0  0  0  0
   31.5268   21.3297   26.7874 H   0  0  0  0  0  0  0  0  0  0  0  0
   35.1816   21.2765   28.5267 H   0  0  0  0  0  0  0  0  0  0  0  0
   35.8157   24.8473   31.3761 C   0  0  0  0  0  0  0  0  0  0  0  0
   35.5767   24.3737   30.1482 C   0  0  0  0  0  0  0  0  0  0  0  0
   34.3060   24.1507   29.6533 N   0  0  0  0  0  0  0  0  0  0  0  0
   33.1741   24.4148   30.4170 C   0  0  0  0  0  0  0  0  0  0  0  0
   32.0180   24.2251   30.0489 O   0  0  0  0  0  0  0  0  0  0  0  0
   33.4153   24.8963   31.6790 N   0  0  0  0  0  0  0  0  0  0  0  0
   34.6416   25.1725   32.2225 C   0  0  0  0  0  0  0  0  0  0  0  0
   34.7426   25.6660   33.3417 O   0  0  0  0  0  0  0  0  0  0  0  0
   32.6298   25.0592   32.2497 H   0  0  0  0  0  0  0  0  0  0  0  0
   38.2825   25.2255   32.2035 C   0  0  0  0  0  0  0  0  0  0  0  0
   37.1500   25.0717   31.8221 C   0  0  0  0  0  0  0  0  0  0  0  0
   39.6590   25.3884   32.6984 C   0  0  0  0  0  0  0  0  0  0  0  0
   40.7008   26.4709   34.7582 C   0  0  0  0  0  0  0  0  0  0  0  0
   39.8434   26.6662   33.5152 C   0  0  0  0  0  0  0  0  0  0  0  0
   31.1318   24.2274   26.5890 C   0  0  0  0  0  0  0  0  0  0  0  0
   30.4051   24.6634   25.4388 O   0  0  0  0  0  0  0  0  0  0  0  0
   30.6178   25.5917   25.2547 H   0  0  0  0  0  0  0  0  0  0  0  0
 25 26  1  0
 26 24  1  0
 24 22  1  0
 22 23  3  0
 23 13  1  0
 13 14  2  0
 14 15  1  0
  1 15  1  0
  1  2  1  0
  2  3  1  0
  3 27  1  0
 27 28  1  0
  3  4  1  0
  4  5  1  0
  4  6  1  0
  6  7  1  0
  6  8  1  0
  8  9  1  0
 15 16  1  0
 16 17  2  0
 16 18  1  0
 18 19  1  0
 19 20  2  0
 19 13  1  0
  8  1  1  0
 28 29  1  0
  5 10  1  0
  7 11  1  0
  9 12  1  0
 18 21  1  0
M  END
> <minimizedAffinity>
-8.11571

> <CNNscore>
0.2119165212

> <CNNaffinity>
4.3514018059

> <CNN_VS>
0.9221339226

> <CNNaffinity_variance>
0.3863340616

$$$$



 29 30  0  0  0  0  0  0  0  0999 V2000
   37.0877   23.9568   31.1210 C   0  0  0  0  0  0  0  0  0  0  0  0
   37.1410   24.9102   32.1879 O   0  0  0  0  0  0  0  0  0  0  0  0
   38.4413   25.2270   32.7118 C   0  0  0  0  0  0  0  0  0  0  0  0
   39.5631   24.2581   32.3042 C   0  0  0  0  0  0  0  0  0  0  0  0
   39.3555   23.0348   33.0353 O   0  0  0  0  0  0  0  0  0  0  0  0
   39.5789   23.9356   30.7980 C   0  0  0  0  0  0  0  0  0  0  0  0
   40.5970   24.6992   30.1267 O   0  0  0  0  0  0  0  0  0  0  0  0
   38.2280   24.1681   30.1025 C   0  0  0  0  0  0  0  0  0  0  0  0
   38.1269   23.3020   28.9637 O   0  0  0  0  0  0  0  0  0  0  0  0
   38.4945   22.6575   32.7962 H   0  0  0  0  0  0  0  0  0  0  0  0
   40.3914   25.6446   30.1971 H   0  0  0  0  0  0  0  0  0  0  0  0
   38.1943   22.3785   29.2529 H   0  0  0  0  0  0  0  0  0  0  0  0
   34.1992   23.2320   28.8837 C   0  0  0  0  0  0  0  0  0  0  0  0
   35.4116   23.2348   29.4488 C   0  0  0  0  0  0  0  0  0  0  0  0
   35.7679   24.0827   30.4799 N   0  0  0  0  0  0  0  0  0  0  0  0
   34.8667   25.0017   31.0068 C   0  0  0  0  0  0  0  0  0  0  0  0
   35.1193   25.7955   31.9091 O   0  0  0  0  0  0  0  0  0  0  0  0
   33.6234   25.0052   30.4266 N   0  0  0  0  0  0  0  0  0  0  0  0
   33.1907   24.1742   29.4278 C   0  0  0  0  0  0  0  0  0  0  0  0
   32.0321   24.2165   29.0250 O   0  0  0  0  0  0  0  0  0  0  0  0
   32.9792   25.6703   30.7611 H   0  0  0  0  0  0  0  0  0  0  0  0
   33.5897   21.5589   26.9493 C   0  0  0  0  0  0  0  0  0  0  0  0
   33.8879   22.3204   27.8341 C   0  0  0  0  0  0  0  0  0  0  0  0
   33.1955   20.6162   25.8900 C   0  0  0  0  0  0  0  0  0  0  0  0
   30.9398   20.2188   27.0097 C   0  0  0  0  0  0  0  0  0  0  0  0
   31.6804   20.5270   25.7155 C   0  0  0  0  0  0  0  0  0  0  0  0
   38.7607   26.7020   32.3914 C   0  0  0  0  0  0  0  0  0  0  0  0
   38.0126   27.6084   33.2037 O   0  0  0  0  0  0  0  0  0  0  0  0
   37.0648   27.4828   33.0395 H   0  0  0  0  0  0  0  0  0  0  0  0
 25 26  1  0
 26 24  1  0
 24 22  1  0
 22 23  3  0
 23 13  1  0
 13 14  2  0
 14 15  1  0
  1 15  1  0
  1  2  1  0
  2  3  1  0
  3 27  1  0
 27 28  1  0
  3  4  1  0
  4  5  1  0
  4  6  1  0
  6  7  1  0
  6  8  1  0
  8  9  1  0
 15 16  1  0
 16 17  2  0
 16 18  1  0
 18 19  1  0
 19 20  2  0
 19 13  1  0
  8  1  1  0
 28 29  1  0
  5 10  1  0
  7 11  1  0
  9 12  1  0
 18 21  1  0
M  END
> <minimizedAffinity>
-8.62064

> <CNNscore>
0.1985871047

> <CNNaffinity>
3.4317598343

> <CNN_VS>
0.6815032363

> <CNNaffinity_variance>
2.4575827122

$$$$



 29 30  0  0  0  0  0  0  0  0999 V2000
   37.9924   24.8151   31.5972 C   0  0  0  0  0  0  0  0  0  0  0  0
   38.4409   23.4693   31.7915 O   0  0  0  0  0  0  0  0  0  0  0  0
   39.8353   23.2854   32.0872 C   0  0  0  0  0  0  0  0  0  0  0  0
   40.7266   24.5087   31.8177 C   0  0  0  0  0  0  0  0  0  0  0  0
   40.8500   24.6389   30.3888 O   0  0  0  0  0  0  0  0  0  0  0  0
   40.1549   25.8219   32.3849 C   0  0  0  0  0  0  0  0  0  0  0  0
   40.8098   26.1690   33.6182 O   0  0  0  0  0  0  0  0  0  0  0  0
   38.6347   25.7877   32.6090 C   0  0  0  0  0  0  0  0  0  0  0  0
   38.1121   27.1199   32.5118 O   0  0  0  0  0  0  0  0  0  0  0  0
   39.9727   24.7814   30.0002 H   0  0  0  0  0  0  0  0  0  0  0  0
   40.6282   25.4871   34.2837 H   0  0  0  0  0  0  0  0  0  0  0  0
   38.3077   27.4806   31.6329 H   0  0  0  0  0  0  0  0  0  0  0  0
   34.4072   24.4007   30.6756 C   0  0  0  0  0  0  0  0  0  0  0  0
   35.7392   24.5099   30.6189 C   0  0  0  0  0  0  0  0  0  0  0  0
   36.5243   24.8141   31.7144 N   0  0  0  0  0  0  0  0  0  0  0  0
   35.9656   25.0257   32.9703 C   0  0  0  0  0  0  0  0  0  0  0  0
   36.5992   25.3156   33.9816 O   0  0  0  0  0  0  0  0  0  0  0  0
   34.5990   24.9192   33.0316 N   0  0  0  0  0  0  0  0  0  0  0  0
   33.7628   24.5891   31.9985 C   0  0  0  0  0  0  0  0  0  0  0  0
   32.5560   24.4550   32.1775 O   0  0  0  0  0  0  0  0  0  0  0  0
   34.1784   25.0976   33.9036 H   0  0  0  0  0  0  0  0  0  0  0  0
   33.0448   23.7634   28.5191 C   0  0  0  0  0  0  0  0  0  0  0  0
   33.6546   24.0676   29.5127 C   0  0  0  0  0  0  0  0  0  0  0  0
   32.3327   23.3961   27.2845 C   0  0  0  0  0  0  0  0  0  0  0  0
   33.6514   21.2559   27.7090 C   0  0  0  0  0  0  0  0  0  0  0  0
   32.7294   22.0154   26.7648 C   0  0  0  0  0  0  0  0  0  0  0  0
   39.9709   22.7341   33.5217 C   0  0  0  0  0  0  0  0  0  0  0  0
   41.2982   22.2909   33.8099 O   0  0  0  0  0  0  0  0  0  0  0  0
   41.5363   21.5695   33.2066 H   0  0  0  0  0  0  0  0  0  0  0  0
 25 26  1  0
 26 24  1  0
 24 22  1  0
 22 23  3  0
 23 13  1  0
 13 14  2  0
 14 15  1  0
  1 15  1  0
  1  2  1  0
  2  3  1  0
  3 27  1  0
 27 28  1  0
  3  4  1  0
  4  5  1  0
  4  6  1  0
  6  7  1  0
  6  8  1  0
  8  9  1  0
 15 16  1  0
 16 17  2  0
 16 18  1  0
 18 19  1  0
 19 20  2  0
 19 13  1  0
  8  1  1  0
 28 29  1  0
  5 10  1  0
  7 11  1  0
  9 12  1  0
 18 21  1  0
M  END
> <minimizedAffinity>
-4.44196

> <CNNscore>
0.1975944340

> <CNNaffinity>
4.3184256554

> <CNN_VS>
0.8532968760

> <CNNaffinity_variance>
0.2628205121

$$$$



 29 30  0  0  0  0  0  0  0  0999 V2000
   36.9920   24.4558   32.1908 C   0  0  0  0  0  0  0  0  0  0  0  0
   37.4695   25.3266   33.2221 O   0  0  0  0  0  0  0  0  0  0  0  0
   38.8635   25.6749   33.1847 C   0  0  0  0  0  0  0  0  0  0  0  0
   39.7292   24.8042   32.2596 C   0  0  0  0  0  0  0  0  0  0  0  0
   39.8704   23.5191   32.8940 O   0  0  0  0  0  0  0  0  0  0  0  0
   39.1181   24.5988   30.8605 C   0  0  0  0  0  0  0  0  0  0  0  0
   39.7464   25.4672   29.9005 O   0  0  0  0  0  0  0  0  0  0  0  0
   37.5960   24.8076   30.8147 C   0  0  0  0  0  0  0  0  0  0  0  0
   37.0432   24.0265   29.7463 O   0  0  0  0  0  0  0  0  0  0  0  0
   38.9958   23.1134   33.0009 H   0  0  0  0  0  0  0  0  0  0  0  0
   39.5713   26.3914   30.1373 H   0  0  0  0  0  0  0  0  0  0  0  0
   37.2431   23.0889   29.8943 H   0  0  0  0  0  0  0  0  0  0  0  0
   33.5031   24.5008   30.8868 C   0  0  0  0  0  0  0  0  0  0  0  0
   34.8380   24.5078   30.9723 C   0  0  0  0  0  0  0  0  0  0  0  0
   35.5228   24.5561   32.1714 N   0  0  0  0  0  0  0  0  0  0  0  0
   34.8511   24.5973   33.3885 C   0  0  0  0  0  0  0  0  0  0  0  0
   35.3934   24.6584   34.4887 O   0  0  0  0  0  0  0  0  0  0  0  0
   33.4817   24.5952   33.3049 N   0  0  0  0  0  0  0  0  0  0  0  0
   32.7380   24.5150   32.1577 C   0  0  0  0  0  0  0  0  0  0  0  0
   31.5129   24.4526   32.1992 O   0  0  0  0  0  0  0  0  0  0  0  0
   32.9849   24.6574   34.1526 H   0  0  0  0  0  0  0  0  0  0  0  0
   32.2861   24.4023   28.5584 C   0  0  0  0  0  0  0  0  0  0  0  0
   32.8557   24.4328   29.6196 C   0  0  0  0  0  0  0  0  0  0  0  0
   31.5562   24.3664   27.2808 C   0  0  0  0  0  0  0  0  0  0  0  0
   32.3093   21.9356   27.4361 C   0  0  0  0  0  0  0  0  0  0  0  0
   31.6747   23.0177   26.5730 C   0  0  0  0  0  0  0  0  0  0  0  0
   38.9911   27.1855   32.8986 C   0  0  0  0  0  0  0  0  0  0  0  0
   37.8425   27.9185   33.3283 O   0  0  0  0  0  0  0  0  0  0  0  0
   37.0606   27.6053   32.8472 H   0  0  0  0  0  0  0  0  0  0  0  0
 25 26  1  0
 26 24  1  0
 24 22  1  0
 22 23  3  0
 23 13  1  0
 13 14  2  0
 14 15  1  0
  1 15  1  0
  1  2  1  0
  2  3  1  0
  3 27  1  0
 27 28  1  0
  3  4  1  0
  4  5  1  0
  4  6  1  0
  6  7  1  0
  6  8  1  0
  8  9  1  0
 15 16  1  0
 16 17  2  0
 16 18  1  0
 18 19  1  0
 19 20  2  0
 19 13  1  0
  8  1  1  0
 28 29  1  0
  5 10  1  0
  7 11  1  0
  9 12  1  0
 18 21  1  0
M  END
> <minimizedAffinity>
-7.25606

> <CNNscore>
0.1857911944

> <CNNaffinity>
3.5866851807

> <CNN_VS>
0.6663745046

> <CNNaffinity_variance>
1.3347011805

$$$$
