


 18 19  0  0  0  0  0  0  0  0999 V2000
   10.3342    4.4852   12.4256 C   0  0  0  0  0  0  0  0  0  0  0  0
    9.1337    5.0549   12.4591 N   0  0  0  0  0  0  0  0  0  0  0  0
    8.1752    4.3074   12.9734 C   0  0  0  0  0  0  0  0  0  0  0  0
    6.9102    4.8525   13.0363 N   0  0  0  0  0  0  0  0  0  0  0  0
    8.3400    3.0920   13.4668 N   0  0  0  0  0  0  0  0  0  0  0  0
    9.5783    2.6058   13.3710 C   0  0  0  0  0  0  0  0  0  0  0  0
   10.6192    3.2714   12.8809 N   0  0  0  0  0  0  0  0  0  0  0  0
    6.7449    5.7552   12.6800 H   0  0  0  0  0  0  0  0  0  0  0  0
    6.1723    4.3388   13.4374 H   0  0  0  0  0  0  0  0  0  0  0  0
    9.8162    1.2666   13.9250 C   0  0  0  0  0  0  0  0  0  0  0  0
   10.5108    1.1417   15.1487 C   0  0  0  0  0  0  0  0  0  0  0  0
   10.7819   -0.1064   15.7161 C   0  0  0  0  0  0  0  0  0  0  0  0
   10.3595   -1.2647   15.0752 C   0  0  0  0  0  0  0  0  0  0  0  0
    9.6608   -1.1727   13.8731 C   0  0  0  0  0  0  0  0  0  0  0  0
    9.3872    0.0791   13.3023 C   0  0  0  0  0  0  0  0  0  0  0  0
    8.4570    0.0715   11.8399 Cl  0  0  0  0  0  0  0  0  0  0  0  0
   13.0550    4.7629   12.6542 C   0  0  0  0  0  0  0  0  0  0  0  0
   11.6536    5.4705   11.7545 S   0  0  0  0  0  0  0  0  0  0  0  0
 17 18  1  0
 18  1  1  0
  1  2  2  0
  2  3  1  0
  3  4  1  0
  3  5  2  0
  5  6  1  0
  6 10  1  0
 10 11  2  0
 11 12  1  0
 12 13  2  0
 13 14  1  0
 14 15  2  0
 15 16  1  0
  6  7  2  0
  7  1  1  0
 15 10  1  0
  4  8  1  0
  4  9  1  0
M  END
> <minimizedAffinity>
-7.36660

> <CNNscore>
0.9483059049

> <CNNaffinity>
6.0400633812

> <CNN_VS>
5.7278275490

> <CNNaffinity_variance>
0.2891806364

$$$$



 18 19  0  0  0  0  0  0  0  0999 V2000
    8.3949    2.0688   12.6018 C   0  0  0  0  0  0  0  0  0  0  0  0
    7.2735    2.7809   12.5541 N   0  0  0  0  0  0  0  0  0  0  0  0
    7.3618    3.9959   13.0620 C   0  0  0  0  0  0  0  0  0  0  0  0
    6.2275    4.7794   13.0335 N   0  0  0  0  0  0  0  0  0  0  0  0
    8.4612    4.5337   13.5618 N   0  0  0  0  0  0  0  0  0  0  0  0
    9.5265    3.7314   13.5777 C   0  0  0  0  0  0  0  0  0  0  0  0
    9.5541    2.4966   13.0868 N   0  0  0  0  0  0  0  0  0  0  0  0
    5.3877    4.4168   12.6693 H   0  0  0  0  0  0  0  0  0  0  0  0
    6.2573    5.7015   13.3773 H   0  0  0  0  0  0  0  0  0  0  0  0
   10.7781    4.2912   14.1042 C   0  0  0  0  0  0  0  0  0  0  0  0
   11.0081    4.2715   15.4979 C   0  0  0  0  0  0  0  0  0  0  0  0
   12.1719    4.8046   16.0585 C   0  0  0  0  0  0  0  0  0  0  0  0
   13.1409    5.3679   15.2371 C   0  0  0  0  0  0  0  0  0  0  0  0
   12.9480    5.3902   13.8574 C   0  0  0  0  0  0  0  0  0  0  0  0
   11.7808    4.8551   13.2926 C   0  0  0  0  0  0  0  0  0  0  0  0
   11.6805    4.8819   11.5625 Cl  0  0  0  0  0  0  0  0  0  0  0  0
    9.1645   -0.4935   13.2139 C   0  0  0  0  0  0  0  0  0  0  0  0
    8.3171    0.4324   11.9105 S   0  0  0  0  0  0  0  0  0  0  0  0
 17 18  1  0
 18  1  1  0
  1  2  2  0
  2  3  1  0
  3  4  1  0
  3  5  2  0
  5  6  1  0
  6 10  1  0
 10 11  2  0
 11 12  1  0
 12 13  2  0
 13 14  1  0
 14 15  2  0
 15 16  1  0
  6  7  2  0
  7  1  1  0
 15 10  1  0
  4  8  1  0
  4  9  1  0
M  END
> <minimizedAffinity>
-6.98082

> <CNNscore>
0.9326325655

> <CNNaffinity>
5.5487365723

> <CNN_VS>
5.1749324799

> <CNNaffinity_variance>
0.1338314414

$$$$



 18 19  0  0  0  0  0  0  0  0999 V2000
    8.2540    1.9955   12.4903 C   0  0  0  0  0  0  0  0  0  0  0  0
    7.1465    2.7072   12.6740 N   0  0  0  0  0  0  0  0  0  0  0  0
    7.3404    3.9424   13.0971 C   0  0  0  0  0  0  0  0  0  0  0  0
    6.2243    4.7263   13.2995 N   0  0  0  0  0  0  0  0  0  0  0  0
    8.5214    4.4985   13.3063 N   0  0  0  0  0  0  0  0  0  0  0  0
    9.5677    3.6953   13.1084 C   0  0  0  0  0  0  0  0  0  0  0  0
    9.4906    2.4410   12.6758 N   0  0  0  0  0  0  0  0  0  0  0  0
    5.3259    4.3505   13.1548 H   0  0  0  0  0  0  0  0  0  0  0  0
    6.3257    5.6619   13.5887 H   0  0  0  0  0  0  0  0  0  0  0  0
   10.9028    4.2741   13.3073 C   0  0  0  0  0  0  0  0  0  0  0  0
   11.5673    4.8648   12.2095 C   0  0  0  0  0  0  0  0  0  0  0  0
   12.8455    5.4160   12.3338 C   0  0  0  0  0  0  0  0  0  0  0  0
   13.4917    5.3955   13.5638 C   0  0  0  0  0  0  0  0  0  0  0  0
   12.8562    4.8312   14.6679 C   0  0  0  0  0  0  0  0  0  0  0  0
   11.5730    4.2779   14.5455 C   0  0  0  0  0  0  0  0  0  0  0  0
   10.8580    3.6626   15.9995 Cl  0  0  0  0  0  0  0  0  0  0  0  0
    9.0916   -0.5520   13.0737 C   0  0  0  0  0  0  0  0  0  0  0  0
    8.0311    0.3317   11.9039 S   0  0  0  0  0  0  0  0  0  0  0  0
 17 18  1  0
 18  1  1  0
  1  2  2  0
  2  3  1  0
  3  4  1  0
  3  5  2  0
  5  6  1  0
  6 10  1  0
 10 11  2  0
 11 12  1  0
 12 13  2  0
 13 14  1  0
 14 15  2  0
 15 16  1  0
  6  7  2  0
  7  1  1  0
 15 10  1  0
  4  8  1  0
  4  9  1  0
M  END
> <minimizedAffinity>
-6.65963

> <CNNscore>
0.8678734303

> <CNNaffinity>
5.5598216057

> <CNN_VS>
4.8252215385

> <CNNaffinity_variance>
0.0213739220

$$$$



 18 19  0  0  0  0  0  0  0  0999 V2000
   10.3886    4.4612   12.4547 C   0  0  0  0  0  0  0  0  0  0  0  0
    9.1847    5.0237   12.4895 N   0  0  0  0  0  0  0  0  0  0  0  0
    8.2409    4.2884   13.0469 C   0  0  0  0  0  0  0  0  0  0  0  0
    6.9732    4.8269   13.1132 N   0  0  0  0  0  0  0  0  0  0  0  0
    8.4233    3.0924   13.5798 N   0  0  0  0  0  0  0  0  0  0  0  0
    9.6632    2.6114   13.4790 C   0  0  0  0  0  0  0  0  0  0  0  0
   10.6904    3.2661   12.9472 N   0  0  0  0  0  0  0  0  0  0  0  0
    6.7950    5.7154   12.7284 H   0  0  0  0  0  0  0  0  0  0  0  0
    6.2463    4.3228   13.5454 H   0  0  0  0  0  0  0  0  0  0  0  0
    9.9207    1.2942   14.0755 C   0  0  0  0  0  0  0  0  0  0  0  0
    9.5202    0.1328   13.3780 C   0  0  0  0  0  0  0  0  0  0  0  0
    9.7228   -1.1464   13.9027 C   0  0  0  0  0  0  0  0  0  0  0  0
   10.3377   -1.2980   15.1397 C   0  0  0  0  0  0  0  0  0  0  0  0
   10.7553   -0.1714   15.8453 C   0  0  0  0  0  0  0  0  0  0  0  0
   10.5534    1.1135   15.3201 C   0  0  0  0  0  0  0  0  0  0  0  0
   11.1712    2.4341   16.2573 Cl  0  0  0  0  0  0  0  0  0  0  0  0
   13.1046    4.7984   12.6580 C   0  0  0  0  0  0  0  0  0  0  0  0
   11.6886    5.4310   11.7257 S   0  0  0  0  0  0  0  0  0  0  0  0
 17 18  1  0
 18  1  1  0
  1  2  2  0
  2  3  1  0
  3  4  1  0
  3  5  2  0
  5  6  1  0
  6 10  1  0
 10 11  2  0
 11 12  1  0
 12 13  2  0
 13 14  1  0
 14 15  2  0
 15 16  1  0
  6  7  2  0
  7  1  1  0
 15 10  1  0
  4  8  1  0
  4  9  1  0
M  END
> <minimizedAffinity>
-7.01380

> <CNNscore>
0.8594697118

> <CNNaffinity>
5.7649855614

> <CNN_VS>
4.9548306465

> <CNNaffinity_variance>
0.1837786585

$$$$



 18 19  0  0  0  0  0  0  0  0999 V2000
   12.0420    2.5756   13.6163 C   0  0  0  0  0  0  0  0  0  0  0  0
   12.5331    3.5878   12.9083 N   0  0  0  0  0  0  0  0  0  0  0  0
   11.6284    4.3537   12.3278 C   0  0  0  0  0  0  0  0  0  0  0  0
   12.0840    5.4218   11.5843 N   0  0  0  0  0  0  0  0  0  0  0  0
   10.3196    4.1994   12.4337 N   0  0  0  0  0  0  0  0  0  0  0  0
    9.9308    3.1454   13.1526 C   0  0  0  0  0  0  0  0  0  0  0  0
   10.7518    2.3147   13.7869 N   0  0  0  0  0  0  0  0  0  0  0  0
   13.0514    5.5724   11.4806 H   0  0  0  0  0  0  0  0  0  0  0  0
   11.4420    6.0339   11.1571 H   0  0  0  0  0  0  0  0  0  0  0  0
    8.4853    2.9439   13.3170 C   0  0  0  0  0  0  0  0  0  0  0  0
    7.6272    4.0659   13.2940 C   0  0  0  0  0  0  0  0  0  0  0  0
    6.2457    3.9384   13.4623 C   0  0  0  0  0  0  0  0  0  0  0  0
    5.6846    2.6815   13.6532 C   0  0  0  0  0  0  0  0  0  0  0  0
    6.5043    1.5548   13.6678 C   0  0  0  0  0  0  0  0  0  0  0  0
    7.8910    1.6806   13.4984 C   0  0  0  0  0  0  0  0  0  0  0  0
    8.8002    0.2053   13.4713 Cl  0  0  0  0  0  0  0  0  0  0  0  0
   13.1501    2.2141   16.1010 C   0  0  0  0  0  0  0  0  0  0  0  0
   13.2325    1.5326   14.4267 S   0  0  0  0  0  0  0  0  0  0  0  0
 17 18  1  0
 18  1  1  0
  1  2  2  0
  2  3  1  0
  3  4  1  0
  3  5  2  0
  5  6  1  0
  6 10  1  0
 10 11  2  0
 11 12  1  0
 12 13  2  0
 13 14  1  0
 14 15  2  0
 15 16  1  0
  6  7  2  0
  7  1  1  0
 15 10  1  0
  4  8  1  0
  4  9  1  0
M  END
> <minimizedAffinity>
-6.52720

> <CNNscore>
0.8200578094

> <CNNaffinity>
5.5521502495

> <CNN_VS>
4.5530843735

> <CNNaffinity_variance>
0.0355408788

$$$$



 18 19  0  0  0  0  0  0  0  0999 V2000
    9.3894    1.8559   13.5614 C   0  0  0  0  0  0  0  0  0  0  0  0
    8.5635    2.7159   12.9737 N   0  0  0  0  0  0  0  0  0  0  0  0
    8.7496    3.9810   13.3007 C   0  0  0  0  0  0  0  0  0  0  0  0
    7.9222    4.9160   12.7155 N   0  0  0  0  0  0  0  0  0  0  0  0
    9.6905    4.4257   14.1161 N   0  0  0  0  0  0  0  0  0  0  0  0
   10.4558    3.4813   14.6651 C   0  0  0  0  0  0  0  0  0  0  0  0
   10.3634    2.1817   14.4023 N   0  0  0  0  0  0  0  0  0  0  0  0
    7.2087    4.6265   12.1020 H   0  0  0  0  0  0  0  0  0  0  0  0
    8.0449    5.8730   12.9112 H   0  0  0  0  0  0  0  0  0  0  0  0
   11.5296    3.9277   15.5620 C   0  0  0  0  0  0  0  0  0  0  0  0
   12.1006    5.2054   15.3693 C   0  0  0  0  0  0  0  0  0  0  0  0
   13.1365    5.6776   16.1797 C   0  0  0  0  0  0  0  0  0  0  0  0
   13.6260    4.8841   17.2101 C   0  0  0  0  0  0  0  0  0  0  0  0
   13.0741    3.6242   17.4328 C   0  0  0  0  0  0  0  0  0  0  0  0
   12.0338    3.1487   16.6209 C   0  0  0  0  0  0  0  0  0  0  0  0
   11.3847    1.5952   17.0324 Cl  0  0  0  0  0  0  0  0  0  0  0  0
    8.1173    0.3206   11.6755 C   0  0  0  0  0  0  0  0  0  0  0  0
    9.1783    0.1437   13.1306 S   0  0  0  0  0  0  0  0  0  0  0  0
 17 18  1  0
 18  1  1  0
  1  2  2  0
  2  3  1  0
  3  4  1  0
  3  5  2  0
  5  6  1  0
  6 10  1  0
 10 11  2  0
 11 12  1  0
 12 13  2  0
 13 14  1  0
 14 15  2  0
 15 16  1  0
  6  7  2  0
  7  1  1  0
 15 10  1  0
  4  8  1  0
  4  9  1  0
M  END
> <minimizedAffinity>
-5.92944

> <CNNscore>
0.8146296740

> <CNNaffinity>
5.2937631607

> <CNN_VS>
4.3124566078

> <CNNaffinity_variance>
0.1295246482

$$$$



 18 19  0  0  0  0  0  0  0  0999 V2000
    9.3666    3.9289   13.2667 C   0  0  0  0  0  0  0  0  0  0  0  0
   10.4387    4.5731   12.8168 N   0  0  0  0  0  0  0  0  0  0  0  0
   11.5720    3.9026   12.9080 C   0  0  0  0  0  0  0  0  0  0  0  0
   12.7151    4.5235   12.4508 N   0  0  0  0  0  0  0  0  0  0  0  0
   11.6914    2.6691   13.3686 N   0  0  0  0  0  0  0  0  0  0  0  0
   10.5597    2.1180   13.8095 C   0  0  0  0  0  0  0  0  0  0  0  0
    9.3639    2.6960   13.7586 N   0  0  0  0  0  0  0  0  0  0  0  0
   12.6695    5.4421   12.0997 H   0  0  0  0  0  0  0  0  0  0  0  0
   13.5769    4.0481   12.4754 H   0  0  0  0  0  0  0  0  0  0  0  0
   10.6375    0.7400   14.3114 C   0  0  0  0  0  0  0  0  0  0  0  0
   11.4670    0.4569   15.4193 C   0  0  0  0  0  0  0  0  0  0  0  0
   11.5948   -0.8375   15.9303 C   0  0  0  0  0  0  0  0  0  0  0  0
   10.8903   -1.8843   15.3482 C   0  0  0  0  0  0  0  0  0  0  0  0
   10.0542   -1.6338   14.2620 C   0  0  0  0  0  0  0  0  0  0  0  0
    9.9240   -0.3351   13.7480 C   0  0  0  0  0  0  0  0  0  0  0  0
    8.8079   -0.1343   12.4374 Cl  0  0  0  0  0  0  0  0  0  0  0  0
    6.6783    3.3916   13.1392 C   0  0  0  0  0  0  0  0  0  0  0  0
    7.8191    4.7961   13.1435 S   0  0  0  0  0  0  0  0  0  0  0  0
 17 18  1  0
 18  1  1  0
  1  2  2  0
  2  3  1  0
  3  4  1  0
  3  5  2  0
  5  6  1  0
  6 10  1  0
 10 11  2  0
 11 12  1  0
 12 13  2  0
 13 14  1  0
 14 15  2  0
 15 16  1  0
  6  7  2  0
  7  1  1  0
 15 10  1  0
  4  8  1  0
  4  9  1  0
M  END
> <minimizedAffinity>
-6.12448

> <CNNscore>
0.7762154341

> <CNNaffinity>
5.5013298988

> <CNN_VS>
4.2702169418

> <CNNaffinity_variance>
0.0126824724

$$$$



 18 19  0  0  0  0  0  0  0  0999 V2000
   13.6893    3.5260   13.2820 C   0  0  0  0  0  0  0  0  0  0  0  0
   13.0094    4.5204   12.7200 N   0  0  0  0  0  0  0  0  0  0  0  0
   11.7396    4.2586   12.4728 C   0  0  0  0  0  0  0  0  0  0  0  0
   10.9866    5.2584   11.8940 N   0  0  0  0  0  0  0  0  0  0  0  0
   11.1240    3.1271   12.7703 N   0  0  0  0  0  0  0  0  0  0  0  0
   11.8984    2.1886   13.3166 C   0  0  0  0  0  0  0  0  0  0  0  0
   13.1836    2.3453   13.6169 N   0  0  0  0  0  0  0  0  0  0  0  0
   11.4068    6.1166   11.6570 H   0  0  0  0  0  0  0  0  0  0  0  0
   10.0289    5.1140   11.7179 H   0  0  0  0  0  0  0  0  0  0  0  0
   11.2550    0.9208   13.6846 C   0  0  0  0  0  0  0  0  0  0  0  0
   11.9907   -0.0369   14.4177 C   0  0  0  0  0  0  0  0  0  0  0  0
   11.4378   -1.2677   14.7814 C   0  0  0  0  0  0  0  0  0  0  0  0
   10.1294   -1.5714   14.4251 C   0  0  0  0  0  0  0  0  0  0  0  0
    9.3746   -0.6415   13.7130 C   0  0  0  0  0  0  0  0  0  0  0  0
    9.9275    0.5947   13.3475 C   0  0  0  0  0  0  0  0  0  0  0  0
    8.8742    1.6946   12.5199 Cl  0  0  0  0  0  0  0  0  0  0  0  0
   16.0528    3.9784   11.9624 C   0  0  0  0  0  0  0  0  0  0  0  0
   15.3997    3.8498   13.6450 S   0  0  0  0  0  0  0  0  0  0  0  0
 17 18  1  0
 18  1  1  0
  1  2  2  0
  2  3  1  0
  3  4  1  0
  3  5  2  0
  5  6  1  0
  6 10  1  0
 10 11  2  0
 11 12  1  0
 12 13  2  0
 13 14  1  0
 14 15  2  0
 15 16  1  0
  6  7  2  0
  7  1  1  0
 15 10  1  0
  4  8  1  0
  4  9  1  0
M  END
> <minimizedAffinity>
-5.59153

> <CNNscore>
0.7500692606

> <CNNaffinity>
5.4007439613

> <CNN_VS>
4.0509319305

> <CNNaffinity_variance>
0.0233686790

$$$$



 18 19  0  0  0  0  0  0  0  0999 V2000
   11.0729    3.4955   13.1780 C   0  0  0  0  0  0  0  0  0  0  0  0
    9.8383    3.7269   12.7431 N   0  0  0  0  0  0  0  0  0  0  0  0
    8.9124    2.9289   13.2411 C   0  0  0  0  0  0  0  0  0  0  0  0
    7.6126    3.1289   12.8264 N   0  0  0  0  0  0  0  0  0  0  0  0
    9.1274    1.9779   14.1339 N   0  0  0  0  0  0  0  0  0  0  0  0
   10.4018    1.8167   14.4927 C   0  0  0  0  0  0  0  0  0  0  0  0
   11.4119    2.5662   14.0631 N   0  0  0  0  0  0  0  0  0  0  0  0
    7.4095    3.8271   12.1627 H   0  0  0  0  0  0  0  0  0  0  0  0
    6.8876    2.5734   13.1940 H   0  0  0  0  0  0  0  0  0  0  0  0
   10.6886    0.7860   15.4988 C   0  0  0  0  0  0  0  0  0  0  0  0
   11.2465    1.1707   16.7384 C   0  0  0  0  0  0  0  0  0  0  0  0
   11.5568    0.2335   17.7275 C   0  0  0  0  0  0  0  0  0  0  0  0
   11.3115   -1.1159   17.5040 C   0  0  0  0  0  0  0  0  0  0  0  0
   10.7498   -1.5244   16.2961 C   0  0  0  0  0  0  0  0  0  0  0  0
   10.4372   -0.5852   15.3022 C   0  0  0  0  0  0  0  0  0  0  0  0
    9.6848   -1.2033   13.8684 Cl  0  0  0  0  0  0  0  0  0  0  0  0
   12.9290    5.3020   14.0855 C   0  0  0  0  0  0  0  0  0  0  0  0
   12.3439    4.5634   12.5407 S   0  0  0  0  0  0  0  0  0  0  0  0
 17 18  1  0
 18  1  1  0
  1  2  2  0
  2  3  1  0
  3  4  1  0
  3  5  2  0
  5  6  1  0
  6 10  1  0
 10 11  2  0
 11 12  1  0
 12 13  2  0
 13 14  1  0
 14 15  2  0
 15 16  1  0
  6  7  2  0
  7  1  1  0
 15 10  1  0
  4  8  1  0
  4  9  1  0
M  END
> <minimizedAffinity>
-5.66085

> <CNNscore>
0.6499834061

> <CNNaffinity>
5.2326998711

> <CNN_VS>
3.4011681080

> <CNNaffinity_variance>
0.0543369651

$$$$
