


 22 23  0  0  0  0  0  0  0  0999 V2000
   -7.6427   34.0842    0.6743 C   0  0  0  0  0  0  0  0  0  0  0  0
   -8.6952   33.2613    1.4179 C   0  0  0  0  0  0  0  0  0  0  0  0
   -8.3514   31.8207    1.0524 C   0  0  0  0  0  0  0  0  0  0  0  0
   -9.4809   30.9785    1.1933 O   0  0  0  0  0  0  0  0  0  0  0  0
   -7.9050   31.9433   -0.4033 C   0  0  0  0  0  0  0  0  0  0  0  0
   -7.3292   33.2785   -0.5148 N   0  0  0  0  0  0  0  0  0  0  0  0
   -6.7992   33.7065   -1.7136 C   0  0  0  0  0  0  0  0  0  0  0  0
   -6.7320   32.9435   -2.6805 O   0  0  0  0  0  0  0  0  0  0  0  0
  -10.2072   31.3175    0.6470 H   0  0  0  0  0  0  0  0  0  0  0  0
   -5.6927   34.8541    3.8696 C   0  0  0  0  0  0  0  0  0  0  0  0
   -6.7326   34.6921    2.8842 N   0  0  0  0  0  0  0  0  0  0  0  0
   -6.4267   34.3242    1.5912 C   0  0  0  0  0  0  0  0  0  0  0  0
   -5.2796   34.2905    1.1533 O   0  0  0  0  0  0  0  0  0  0  0  0
   -7.6715   34.8459    3.1375 H   0  0  0  0  0  0  0  0  0  0  0  0
   -6.2650   35.1277   -1.8133 C   0  0  0  0  0  0  0  0  0  0  0  0
   -7.1913   35.9190   -2.6509 C   0  0  0  0  0  0  0  0  0  0  0  0
   -7.0008   37.2661   -2.6493 O   0  0  0  0  0  0  0  0  0  0  0  0
   -7.9200   37.8666   -3.4887 N   0  0  0  0  0  0  0  0  0  0  0  0
   -8.6650   36.8685   -3.9849 C   0  0  0  0  0  0  0  0  0  0  0  0
   -9.7635   37.1552   -4.9352 C   0  0  0  0  0  0  0  0  0  0  0  0
   -8.2430   35.6174   -3.4787 C   0  0  0  0  0  0  0  0  0  0  0  0
   -8.9040   34.1006   -3.8347 Cl  0  0  0  0  0  0  0  0  0  0  0  0
 10 11  1  0
 11 12  1  0
 12 13  2  0
  1 12  1  0
  1  2  1  0
  2  3  1  0
  3  4  1  0
  3  5  1  0
  5  6  1  0
  6  7  1  0
  7  8  2  0
  7 15  1  0
 15 16  1  0
 16 17  1  0
 17 18  1  0
 18 19  2  0
 19 20  1  0
 19 21  1  0
 21 22  1  0
  6  1  1  0
 21 16  2  0
 11 14  1  0
  4  9  1  0
M  END
> <minimizedAffinity>
-6.33423

> <CNNscore>
0.8514213562

> <CNNaffinity>
5.5284514427

> <CNN_VS>
4.7070417404

> <CNNaffinity_variance>
0.2009684592

$$$$



 22 23  0  0  0  0  0  0  0  0999 V2000
   -6.5223   34.1858    1.0340 C   0  0  0  0  0  0  0  0  0  0  0  0
   -7.0839   33.2531   -0.0395 C   0  0  0  0  0  0  0  0  0  0  0  0
   -8.4039   32.7721    0.5551 C   0  0  0  0  0  0  0  0  0  0  0  0
   -8.7983   31.5385   -0.0174 O   0  0  0  0  0  0  0  0  0  0  0  0
   -8.0712   32.6355    2.0396 C   0  0  0  0  0  0  0  0  0  0  0  0
   -7.0460   33.6408    2.2950 N   0  0  0  0  0  0  0  0  0  0  0  0
   -6.5355   33.8023    3.5657 C   0  0  0  0  0  0  0  0  0  0  0  0
   -6.9919   33.1592    4.5141 O   0  0  0  0  0  0  0  0  0  0  0  0
   -8.0944   30.8833    0.1098 H   0  0  0  0  0  0  0  0  0  0  0  0
   -8.0259   37.6348    1.7037 C   0  0  0  0  0  0  0  0  0  0  0  0
   -7.6331   36.2508    1.7978 N   0  0  0  0  0  0  0  0  0  0  0  0
   -6.9759   35.6327    0.7552 C   0  0  0  0  0  0  0  0  0  0  0  0
   -6.8475   36.1397   -0.3562 O   0  0  0  0  0  0  0  0  0  0  0  0
   -7.8365   35.7415    2.6154 H   0  0  0  0  0  0  0  0  0  0  0  0
   -5.4216   34.8154    3.7848 C   0  0  0  0  0  0  0  0  0  0  0  0
   -5.5218   35.3307    5.1670 C   0  0  0  0  0  0  0  0  0  0  0  0
   -6.5099   36.2364    5.4003 O   0  0  0  0  0  0  0  0  0  0  0  0
   -6.4948   36.6081    6.7314 N   0  0  0  0  0  0  0  0  0  0  0  0
   -5.4857   35.9235    7.2884 C   0  0  0  0  0  0  0  0  0  0  0  0
   -5.1786   36.0814    8.7281 C   0  0  0  0  0  0  0  0  0  0  0  0
   -4.8377   35.1049    6.3346 C   0  0  0  0  0  0  0  0  0  0  0  0
   -3.5166   34.0815    6.6023 Cl  0  0  0  0  0  0  0  0  0  0  0  0
 10 11  1  0
 11 12  1  0
 12 13  2  0
  1 12  1  0
  1  2  1  0
  2  3  1  0
  3  4  1  0
  3  5  1  0
  5  6  1  0
  6  7  1  0
  7  8  2  0
  7 15  1  0
 15 16  1  0
 16 17  1  0
 17 18  1  0
 18 19  2  0
 19 20  1  0
 19 21  1  0
 21 22  1  0
  6  1  1  0
 21 16  2  0
 11 14  1  0
  4  9  1  0
M  END
> <minimizedAffinity>
-5.72530

> <CNNscore>
0.6535804272

> <CNNaffinity>
4.8889517784

> <CNN_VS>
3.1953232288

> <CNNaffinity_variance>
0.3263221681

$$$$



 22 23  0  0  0  0  0  0  0  0999 V2000
   -6.7460   33.2426    0.0462 C   0  0  0  0  0  0  0  0  0  0  0  0
   -7.7232   32.0910   -0.1923 C   0  0  0  0  0  0  0  0  0  0  0  0
   -8.8656   32.3807    0.7763 C   0  0  0  0  0  0  0  0  0  0  0  0
   -9.5805   31.1981    1.0853 O   0  0  0  0  0  0  0  0  0  0  0  0
   -8.1358   32.9447    1.9939 C   0  0  0  0  0  0  0  0  0  0  0  0
   -6.9494   33.6016    1.4573 N   0  0  0  0  0  0  0  0  0  0  0  0
   -6.0719   34.2461    2.3035 C   0  0  0  0  0  0  0  0  0  0  0  0
   -6.3170   34.3450    3.5083 O   0  0  0  0  0  0  0  0  0  0  0  0
   -8.9703   30.5365    1.4471 H   0  0  0  0  0  0  0  0  0  0  0  0
   -6.7931   36.7948   -1.3627 C   0  0  0  0  0  0  0  0  0  0  0  0
   -6.6532   35.6445   -0.5047 N   0  0  0  0  0  0  0  0  0  0  0  0
   -7.0520   34.3954   -0.9307 C   0  0  0  0  0  0  0  0  0  0  0  0
   -7.7002   34.2081   -1.9572 O   0  0  0  0  0  0  0  0  0  0  0  0
   -6.2688   35.7523    0.3952 H   0  0  0  0  0  0  0  0  0  0  0  0
   -4.8111   34.8654    1.7188 C   0  0  0  0  0  0  0  0  0  0  0  0
   -4.0632   35.5250    2.8104 C   0  0  0  0  0  0  0  0  0  0  0  0
   -3.0901   34.7834    3.4054 O   0  0  0  0  0  0  0  0  0  0  0  0
   -2.4670   35.5340    4.3846 N   0  0  0  0  0  0  0  0  0  0  0  0
   -3.0809   36.7258    4.3744 C   0  0  0  0  0  0  0  0  0  0  0  0
   -2.6606   37.7924    5.3112 C   0  0  0  0  0  0  0  0  0  0  0  0
   -4.1019   36.7647    3.3968 C   0  0  0  0  0  0  0  0  0  0  0  0
   -5.1261   38.0658    3.0469 Cl  0  0  0  0  0  0  0  0  0  0  0  0
 10 11  1  0
 11 12  1  0
 12 13  2  0
  1 12  1  0
  1  2  1  0
  2  3  1  0
  3  4  1  0
  3  5  1  0
  5  6  1  0
  6  7  1  0
  7  8  2  0
  7 15  1  0
 15 16  1  0
 16 17  1  0
 17 18  1  0
 18 19  2  0
 19 20  1  0
 19 21  1  0
 21 22  1  0
  6  1  1  0
 21 16  2  0
 11 14  1  0
  4  9  1  0
M  END
> <minimizedAffinity>
-4.77190

> <CNNscore>
0.4550113976

> <CNNaffinity>
5.0514111519

> <CNN_VS>
2.2984497547

> <CNNaffinity_variance>
0.4368208945

$$$$



 22 23  0  0  0  0  0  0  0  0999 V2000
   -6.8847   33.2461   -0.5186 C   0  0  0  0  0  0  0  0  0  0  0  0
   -7.7843   32.0118   -0.4473 C   0  0  0  0  0  0  0  0  0  0  0  0
   -8.8153   32.3776    0.6160 C   0  0  0  0  0  0  0  0  0  0  0  0
   -9.3838   31.2157    1.1920 O   0  0  0  0  0  0  0  0  0  0  0  0
   -7.9872   33.1717    1.6245 C   0  0  0  0  0  0  0  0  0  0  0  0
   -6.9374   33.8095    0.8384 N   0  0  0  0  0  0  0  0  0  0  0  0
   -6.0172   34.6337    1.4508 C   0  0  0  0  0  0  0  0  0  0  0  0
   -6.1154   34.9057    2.6499 O   0  0  0  0  0  0  0  0  0  0  0  0
   -8.6794   30.6594    1.5600 H   0  0  0  0  0  0  0  0  0  0  0  0
   -8.7568   34.4098   -3.6405 C   0  0  0  0  0  0  0  0  0  0  0  0
   -8.1307   33.6131   -2.6148 N   0  0  0  0  0  0  0  0  0  0  0  0
   -7.4072   34.2087   -1.6036 C   0  0  0  0  0  0  0  0  0  0  0  0
   -7.0986   35.3977   -1.6055 O   0  0  0  0  0  0  0  0  0  0  0  0
   -8.2209   32.6330   -2.6368 H   0  0  0  0  0  0  0  0  0  0  0  0
   -4.8967   35.2317    0.6129 C   0  0  0  0  0  0  0  0  0  0  0  0
   -3.8633   35.7662    1.5252 C   0  0  0  0  0  0  0  0  0  0  0  0
   -3.9859   37.0766    1.8699 O   0  0  0  0  0  0  0  0  0  0  0  0
   -2.9688   37.4260    2.7382 N   0  0  0  0  0  0  0  0  0  0  0  0
   -2.2343   36.3165    2.9024 C   0  0  0  0  0  0  0  0  0  0  0  0
   -1.0450   36.3299    3.7840 C   0  0  0  0  0  0  0  0  0  0  0  0
   -2.7603   35.2411    2.1497 C   0  0  0  0  0  0  0  0  0  0  0  0
   -2.1472   33.6662    2.0604 Cl  0  0  0  0  0  0  0  0  0  0  0  0
 10 11  1  0
 11 12  1  0
 12 13  2  0
  1 12  1  0
  1  2  1  0
  2  3  1  0
  3  4  1  0
  3  5  1  0
  5  6  1  0
  6  7  1  0
  7  8  2  0
  7 15  1  0
 15 16  1  0
 16 17  1  0
 17 18  1  0
 18 19  2  0
 19 20  1  0
 19 21  1  0
 21 22  1  0
  6  1  1  0
 21 16  2  0
 11 14  1  0
  4  9  1  0
M  END
> <minimizedAffinity>
-4.77267

> <CNNscore>
0.3754202724

> <CNNaffinity>
5.6188950539

> <CNN_VS>
2.1094470024

> <CNNaffinity_variance>
0.3919587135

$$$$



 22 23  0  0  0  0  0  0  0  0999 V2000
   -7.1816   33.9921   -0.8515 C   0  0  0  0  0  0  0  0  0  0  0  0
   -6.7529   33.1539   -2.0563 C   0  0  0  0  0  0  0  0  0  0  0  0
   -5.2968   32.8109   -1.7574 C   0  0  0  0  0  0  0  0  0  0  0  0
   -4.5911   32.5137   -2.9486 O   0  0  0  0  0  0  0  0  0  0  0  0
   -4.7840   34.0852   -1.0894 C   0  0  0  0  0  0  0  0  0  0  0  0
   -5.9446   34.6568   -0.4162 N   0  0  0  0  0  0  0  0  0  0  0  0
   -5.8185   35.8185    0.3158 C   0  0  0  0  0  0  0  0  0  0  0  0
   -4.7143   36.3441    0.4774 O   0  0  0  0  0  0  0  0  0  0  0  0
   -4.6587   33.2637   -3.5600 H   0  0  0  0  0  0  0  0  0  0  0  0
   -7.7521   32.4312    2.5900 C   0  0  0  0  0  0  0  0  0  0  0  0
   -7.2118   33.1612    1.4703 N   0  0  0  0  0  0  0  0  0  0  0  0
   -7.7986   33.0775    0.2255 C   0  0  0  0  0  0  0  0  0  0  0  0
   -8.6757   32.2638   -0.0531 O   0  0  0  0  0  0  0  0  0  0  0  0
   -6.4151   33.7257    1.5959 H   0  0  0  0  0  0  0  0  0  0  0  0
   -7.0616   36.4228    0.9519 C   0  0  0  0  0  0  0  0  0  0  0  0
   -6.6568   37.1482    2.1750 C   0  0  0  0  0  0  0  0  0  0  0  0
   -6.7910   38.5017    2.1429 O   0  0  0  0  0  0  0  0  0  0  0  0
   -6.3976   39.0367    3.3550 N   0  0  0  0  0  0  0  0  0  0  0  0
   -6.0205   37.9931    4.1074 C   0  0  0  0  0  0  0  0  0  0  0  0
   -5.5337   38.2038    5.4896 C   0  0  0  0  0  0  0  0  0  0  0  0
   -6.1629   36.7770    3.3999 C   0  0  0  0  0  0  0  0  0  0  0  0
   -5.8005   35.2233    3.9646 Cl  0  0  0  0  0  0  0  0  0  0  0  0
 10 11  1  0
 11 12  1  0
 12 13  2  0
  1 12  1  0
  1  2  1  0
  2  3  1  0
  3  4  1  0
  3  5  1  0
  5  6  1  0
  6  7  1  0
  7  8  2  0
  7 15  1  0
 15 16  1  0
 16 17  1  0
 17 18  1  0
 18 19  2  0
 19 20  1  0
 19 21  1  0
 21 22  1  0
  6  1  1  0
 21 16  2  0
 11 14  1  0
  4  9  1  0
M  END
> <minimizedAffinity>
-4.56020

> <CNNscore>
0.3306325078

> <CNNaffinity>
5.1257481575

> <CNN_VS>
1.6947389841

> <CNNaffinity_variance>
0.1502750665

$$$$



 22 23  0  0  0  0  0  0  0  0999 V2000
   -6.1502   35.1994   -1.0010 C   0  0  0  0  0  0  0  0  0  0  0  0
   -6.0773   36.0086    0.2943 C   0  0  0  0  0  0  0  0  0  0  0  0
   -6.3011   34.9653    1.3846 C   0  0  0  0  0  0  0  0  0  0  0  0
   -6.7890   35.5672    2.5699 O   0  0  0  0  0  0  0  0  0  0  0  0
   -7.3308   34.0334    0.7485 C   0  0  0  0  0  0  0  0  0  0  0  0
   -7.0666   34.0942   -0.6845 N   0  0  0  0  0  0  0  0  0  0  0  0
   -7.8156   33.3365   -1.5598 C   0  0  0  0  0  0  0  0  0  0  0  0
   -8.6603   32.5414   -1.1405 O   0  0  0  0  0  0  0  0  0  0  0  0
   -7.6052   36.0531    2.3735 H   0  0  0  0  0  0  0  0  0  0  0  0
   -3.1479   32.8636   -1.3681 C   0  0  0  0  0  0  0  0  0  0  0  0
   -4.4016   33.4607   -0.9803 N   0  0  0  0  0  0  0  0  0  0  0  0
   -4.7374   34.7299   -1.4013 C   0  0  0  0  0  0  0  0  0  0  0  0
   -3.9468   35.4863   -1.9595 O   0  0  0  0  0  0  0  0  0  0  0  0
   -5.0247   32.9566   -0.4086 H   0  0  0  0  0  0  0  0  0  0  0  0
   -7.5572   33.4719   -3.0531 C   0  0  0  0  0  0  0  0  0  0  0  0
   -8.5547   34.4053   -3.6186 C   0  0  0  0  0  0  0  0  0  0  0  0
   -9.7871   33.8871   -3.8708 O   0  0  0  0  0  0  0  0  0  0  0  0
  -10.6131   34.8752   -4.3722 N   0  0  0  0  0  0  0  0  0  0  0  0
   -9.8621   35.9846   -4.4246 C   0  0  0  0  0  0  0  0  0  0  0  0
  -10.4373   37.2553   -4.9208 C   0  0  0  0  0  0  0  0  0  0  0  0
   -8.5497   35.7337   -3.9617 C   0  0  0  0  0  0  0  0  0  0  0  0
   -7.2769   36.8446   -3.8607 Cl  0  0  0  0  0  0  0  0  0  0  0  0
 10 11  1  0
 11 12  1  0
 12 13  2  0
  1 12  1  0
  1  2  1  0
  2  3  1  0
  3  4  1  0
  3  5  1  0
  5  6  1  0
  6  7  1  0
  7  8  2  0
  7 15  1  0
 15 16  1  0
 16 17  1  0
 17 18  1  0
 18 19  2  0
 19 20  1  0
 19 21  1  0
 21 22  1  0
  6  1  1  0
 21 16  2  0
 11 14  1  0
  4  9  1  0
M  END
> <minimizedAffinity>
-5.20322

> <CNNscore>
0.2987504303

> <CNNaffinity>
3.9721946716

> <CNN_VS>
1.1866948605

> <CNNaffinity_variance>
0.9786217809

$$$$



 22 23  0  0  0  0  0  0  0  0999 V2000
   -6.8451   33.2891   -0.5211 C   0  0  0  0  0  0  0  0  0  0  0  0
   -7.7462   32.0628   -0.3723 C   0  0  0  0  0  0  0  0  0  0  0  0
   -8.7788   32.4973    0.6632 C   0  0  0  0  0  0  0  0  0  0  0  0
   -9.3497   31.3754    1.3116 O   0  0  0  0  0  0  0  0  0  0  0  0
   -7.9519   33.3539    1.6200 C   0  0  0  0  0  0  0  0  0  0  0  0
   -6.8998   33.9388    0.7966 N   0  0  0  0  0  0  0  0  0  0  0  0
   -5.9798   34.7998    1.3566 C   0  0  0  0  0  0  0  0  0  0  0  0
   -6.0801   35.1485    2.5355 O   0  0  0  0  0  0  0  0  0  0  0  0
   -8.6467   30.8434    1.7160 H   0  0  0  0  0  0  0  0  0  0  0  0
   -8.6622   34.2392   -3.7461 C   0  0  0  0  0  0  0  0  0  0  0  0
   -8.0424   33.5137   -2.6653 N   0  0  0  0  0  0  0  0  0  0  0  0
   -7.3645   34.1804   -1.6669 C   0  0  0  0  0  0  0  0  0  0  0  0
   -7.0898   35.3764   -1.7209 O   0  0  0  0  0  0  0  0  0  0  0  0
   -8.1040   32.5315   -2.6399 H   0  0  0  0  0  0  0  0  0  0  0  0
   -4.8571   35.3415    0.4842 C   0  0  0  0  0  0  0  0  0  0  0  0
   -3.6458   34.5272    0.7198 C   0  0  0  0  0  0  0  0  0  0  0  0
   -3.0534   34.6698    1.9362 O   0  0  0  0  0  0  0  0  0  0  0  0
   -1.9543   33.8358    2.0186 N   0  0  0  0  0  0  0  0  0  0  0  0
   -1.8911   33.2007    0.8396 C   0  0  0  0  0  0  0  0  0  0  0  0
   -0.8178   32.2154    0.5766 C   0  0  0  0  0  0  0  0  0  0  0  0
   -2.9394   33.6102   -0.0166 C   0  0  0  0  0  0  0  0  0  0  0  0
   -3.2351   33.0699   -1.5930 Cl  0  0  0  0  0  0  0  0  0  0  0  0
 10 11  1  0
 11 12  1  0
 12 13  2  0
  1 12  1  0
  1  2  1  0
  2  3  1  0
  3  4  1  0
  3  5  1  0
  5  6  1  0
  6  7  1  0
  7  8  2  0
  7 15  1  0
 15 16  1  0
 16 17  1  0
 17 18  1  0
 18 19  2  0
 19 20  1  0
 19 21  1  0
 21 22  1  0
  6  1  1  0
 21 16  2  0
 11 14  1  0
  4  9  1  0
M  END
> <minimizedAffinity>
-4.89959

> <CNNscore>
0.2946722507

> <CNNaffinity>
4.6591987610

> <CNN_VS>
1.3729366064

> <CNNaffinity_variance>
0.8596324921

$$$$



 22 23  0  0  0  0  0  0  0  0999 V2000
   -6.5366   34.3840   -0.7442 C   0  0  0  0  0  0  0  0  0  0  0  0
   -6.0600   34.3991   -2.1970 C   0  0  0  0  0  0  0  0  0  0  0  0
   -4.8272   33.5007   -2.1817 C   0  0  0  0  0  0  0  0  0  0  0  0
   -3.9652   33.8043   -3.2633 O   0  0  0  0  0  0  0  0  0  0  0  0
   -4.1918   33.8289   -0.8320 C   0  0  0  0  0  0  0  0  0  0  0  0
   -5.3062   34.1898    0.0368 N   0  0  0  0  0  0  0  0  0  0  0  0
   -5.0773   34.5220    1.3554 C   0  0  0  0  0  0  0  0  0  0  0  0
   -3.9448   34.4417    1.8374 O   0  0  0  0  0  0  0  0  0  0  0  0
   -3.7191   34.7419   -3.2273 H   0  0  0  0  0  0  0  0  0  0  0  0
   -8.3273   31.4470    0.9209 C   0  0  0  0  0  0  0  0  0  0  0  0
   -7.3779   32.4731    0.5681 N   0  0  0  0  0  0  0  0  0  0  0  0
   -7.5722   33.2588   -0.5480 C   0  0  0  0  0  0  0  0  0  0  0  0
   -8.4340   33.0291   -1.3927 O   0  0  0  0  0  0  0  0  0  0  0  0
   -6.5822   32.6143    1.1304 H   0  0  0  0  0  0  0  0  0  0  0  0
   -6.2540   34.9559    2.2169 C   0  0  0  0  0  0  0  0  0  0  0  0
   -5.7734   35.1550    3.6008 C   0  0  0  0  0  0  0  0  0  0  0  0
   -4.9493   36.2184    3.8034 O   0  0  0  0  0  0  0  0  0  0  0  0
   -4.6021   36.2896    5.1393 N   0  0  0  0  0  0  0  0  0  0  0  0
   -5.2188   35.2563    5.7305 C   0  0  0  0  0  0  0  0  0  0  0  0
   -5.0648   35.0250    7.1846 C   0  0  0  0  0  0  0  0  0  0  0  0
   -5.9684   34.5070    4.7943 C   0  0  0  0  0  0  0  0  0  0  0  0
   -6.8940   33.1247    5.1053 Cl  0  0  0  0  0  0  0  0  0  0  0  0
 10 11  1  0
 11 12  1  0
 12 13  2  0
  1 12  1  0
  1  2  1  0
  2  3  1  0
  3  4  1  0
  3  5  1  0
  5  6  1  0
  6  7  1  0
  7  8  2  0
  7 15  1  0
 15 16  1  0
 16 17  1  0
 17 18  1  0
 18 19  2  0
 19 20  1  0
 19 21  1  0
 21 22  1  0
  6  1  1  0
 21 16  2  0
 11 14  1  0
  4  9  1  0
M  END
> <minimizedAffinity>
-4.78669

> <CNNscore>
0.2789167464

> <CNNaffinity>
4.4505324364

> <CNN_VS>
1.2413280010

> <CNNaffinity_variance>
0.5918456912

$$$$



 22 23  0  0  0  0  0  0  0  0999 V2000
   -6.8760   33.2184   -0.4115 C   0  0  0  0  0  0  0  0  0  0  0  0
   -7.7927   31.9949   -0.3853 C   0  0  0  0  0  0  0  0  0  0  0  0
   -8.8512   32.3592    0.6511 C   0  0  0  0  0  0  0  0  0  0  0  0
   -9.4516   31.1969    1.1928 O   0  0  0  0  0  0  0  0  0  0  0  0
   -8.0447   33.1285    1.6956 C   0  0  0  0  0  0  0  0  0  0  0  0
   -6.9633   33.7635    0.9511 N   0  0  0  0  0  0  0  0  0  0  0  0
   -6.0521   34.5671    1.6031 C   0  0  0  0  0  0  0  0  0  0  0  0
   -6.1836   34.8237    2.8024 O   0  0  0  0  0  0  0  0  0  0  0  0
   -8.7659   30.6265    1.5742 H   0  0  0  0  0  0  0  0  0  0  0  0
   -8.5960   34.4408   -3.5978 C   0  0  0  0  0  0  0  0  0  0  0  0
   -8.0147   33.6251   -2.5608 N   0  0  0  0  0  0  0  0  0  0  0  0
   -7.3529   34.2026   -1.4981 C   0  0  0  0  0  0  0  0  0  0  0  0
   -7.0596   35.3947   -1.4538 O   0  0  0  0  0  0  0  0  0  0  0  0
   -8.0912   32.6449   -2.6121 H   0  0  0  0  0  0  0  0  0  0  0  0
   -4.8990   35.1622    0.8084 C   0  0  0  0  0  0  0  0  0  0  0  0
   -3.6765   34.3843    1.1022 C   0  0  0  0  0  0  0  0  0  0  0  0
   -3.3035   33.4738    0.1627 O   0  0  0  0  0  0  0  0  0  0  0  0
   -2.1398   32.8440    0.5619 N   0  0  0  0  0  0  0  0  0  0  0  0
   -1.8259   33.3800    1.7500 C   0  0  0  0  0  0  0  0  0  0  0  0
   -0.6174   32.9312    2.4780 C   0  0  0  0  0  0  0  0  0  0  0  0
   -2.7734   34.3568    2.1346 C   0  0  0  0  0  0  0  0  0  0  0  0
   -2.7678   35.2750    3.5563 Cl  0  0  0  0  0  0  0  0  0  0  0  0
 10 11  1  0
 11 12  1  0
 12 13  2  0
  1 12  1  0
  1  2  1  0
  2  3  1  0
  3  4  1  0
  3  5  1  0
  5  6  1  0
  6  7  1  0
  7  8  2  0
  7 15  1  0
 15 16  1  0
 16 17  1  0
 17 18  1  0
 18 19  2  0
 19 20  1  0
 19 21  1  0
 21 22  1  0
  6  1  1  0
 21 16  2  0
 11 14  1  0
  4  9  1  0
M  END
> <minimizedAffinity>
-5.46460

> <CNNscore>
0.2717070282

> <CNNaffinity>
4.8385424614

> <CNN_VS>
1.3146660328

> <CNNaffinity_variance>
0.4869031608

$$$$
