


 31 33  0  0  0  0  0  0  0  0999 V2000
   21.5460   44.5409   56.0149 C   0  0  0  0  0  0  0  0  0  0  0  0
   20.4044   44.3797   55.2473 C   0  0  0  0  0  0  0  0  0  0  0  0
   20.5610   44.0679   53.9056 C   0  0  0  0  0  0  0  0  0  0  0  0
   21.7782   43.9098   53.3656 N   0  0  0  0  0  0  0  0  0  0  0  0
   22.8257   44.0818   54.1780 C   0  0  0  0  0  0  0  0  0  0  0  0
   22.7740   44.3917   55.4788 N   0  0  0  0  0  0  0  0  0  0  0  0
   22.1114   46.3170   59.3524 C   0  0  0  0  0  0  0  0  0  0  0  0
   21.4237   45.4803   60.2326 C   0  0  0  0  0  0  0  0  0  0  0  0
   20.8001   44.3408   59.7349 C   0  0  0  0  0  0  0  0  0  0  0  0
   19.8722   43.1924   60.9192 Br  0  0  0  0  0  0  0  0  0  0  0  0
   20.8458   44.0365   58.3725 C   0  0  0  0  0  0  0  0  0  0  0  0
   21.5159   44.8719   57.4578 C   0  0  0  0  0  0  0  0  0  0  0  0
   22.1497   46.0146   57.9802 C   0  0  0  0  0  0  0  0  0  0  0  0
   23.2317   48.4299   58.8571 N   0  0  0  0  0  0  0  0  0  0  0  0
   22.7947   47.5549   59.8115 C   0  0  0  0  0  0  0  0  0  0  0  0
   22.9357   47.7992   61.0037 O   0  0  0  0  0  0  0  0  0  0  0  0
   23.6886   49.2604   59.1230 H   0  0  0  0  0  0  0  0  0  0  0  0
   23.0897   48.2297   57.9037 H   0  0  0  0  0  0  0  0  0  0  0  0
   19.3856   43.9034   53.1319 N   0  0  0  0  0  0  0  0  0  0  0  0
   18.7072   44.6098   53.2320 H   0  0  0  0  0  0  0  0  0  0  0  0
   19.0566   42.8634   52.2370 C   0  0  0  0  0  0  0  0  0  0  0  0
   17.7195   42.4556   52.1265 C   0  0  0  0  0  0  0  0  0  0  0  0
   17.3464   41.3835   51.3032 C   0  0  0  0  0  0  0  0  0  0  0  0
   18.3121   40.6798   50.5880 C   0  0  0  0  0  0  0  0  0  0  0  0
   19.6500   41.0591   50.7138 C   0  0  0  0  0  0  0  0  0  0  0  0
   20.0171   42.1320   51.5347 C   0  0  0  0  0  0  0  0  0  0  0  0
   18.0989   39.6142   49.7621 O   0  0  0  0  0  0  0  0  0  0  0  0
   17.1778   38.6260   50.1873 C   0  0  0  0  0  0  0  0  0  0  0  0
   16.4133   39.0796   51.2045 F   0  0  0  0  0  0  0  0  0  0  0  0
   16.3613   38.3193   49.1541 F   0  0  0  0  0  0  0  0  0  0  0  0
   17.8119   37.4961   50.5676 F   0  0  0  0  0  0  0  0  0  0  0  0
 14 15  1  0
 15 16  2  0
 15  7  1  0
  7  8  2  0
  8  9  1  0
  9 10  1  0
  9 11  2  0
 11 12  1  0
 12  1  1  0
  1  2  2  0
  2  3  1  0
  3 19  1  0
 19 21  1  0
 21 22  2  0
 22 23  1  0
 23 24  2  0
 24 27  1  0
 27 28  1  0
 28 29  1  0
 28 30  1  0
 28 31  1  0
 24 25  1  0
 25 26  2  0
  3  4  2  0
  4  5  1  0
  5  6  2  0
 12 13  2  0
 13  7  1  0
  6  1  1  0
 26 21  1  0
 14 17  1  0
 14 18  1  0
 19 20  1  0
M  END
> <minimizedAffinity>
-9.31748

> <CNNscore>
0.8976832032

> <CNNaffinity>
6.5391974449

> <CNN_VS>
5.8701276779

> <CNNaffinity_variance>
0.2333139926

$$$$



 31 33  0  0  0  0  0  0  0  0999 V2000
   24.5396   45.7145   54.3110 C   0  0  0  0  0  0  0  0  0  0  0  0
   23.2433   45.2268   54.2887 C   0  0  0  0  0  0  0  0  0  0  0  0
   22.7528   44.6296   55.4396 C   0  0  0  0  0  0  0  0  0  0  0  0
   23.5004   44.5386   56.5491 N   0  0  0  0  0  0  0  0  0  0  0  0
   24.7393   45.0364   56.4843 C   0  0  0  0  0  0  0  0  0  0  0  0
   25.3013   45.6204   55.4194 N   0  0  0  0  0  0  0  0  0  0  0  0
   26.2235   46.2961   50.9289 C   0  0  0  0  0  0  0  0  0  0  0  0
   26.3933   47.6813   50.9374 C   0  0  0  0  0  0  0  0  0  0  0  0
   25.9754   48.4073   52.0479 C   0  0  0  0  0  0  0  0  0  0  0  0
   26.2086   50.2854   52.0765 Br  0  0  0  0  0  0  0  0  0  0  0  0
   25.3818   47.7688   53.1392 C   0  0  0  0  0  0  0  0  0  0  0  0
   25.1801   46.3750   53.1509 C   0  0  0  0  0  0  0  0  0  0  0  0
   25.6183   45.6553   52.0238 C   0  0  0  0  0  0  0  0  0  0  0  0
   27.7549   45.8364   49.0828 N   0  0  0  0  0  0  0  0  0  0  0  0
   26.6389   45.4570   49.7742 C   0  0  0  0  0  0  0  0  0  0  0  0
   26.0218   44.4436   49.4692 O   0  0  0  0  0  0  0  0  0  0  0  0
   28.0607   45.3055   48.3122 H   0  0  0  0  0  0  0  0  0  0  0  0
   28.2531   46.6407   49.3553 H   0  0  0  0  0  0  0  0  0  0  0  0
   21.4249   44.1368   55.4046 N   0  0  0  0  0  0  0  0  0  0  0  0
   20.9571   44.1108   56.2705 H   0  0  0  0  0  0  0  0  0  0  0  0
   20.6827   43.6784   54.2956 C   0  0  0  0  0  0  0  0  0  0  0  0
   19.2827   43.6590   54.3723 C   0  0  0  0  0  0  0  0  0  0  0  0
   18.4988   43.1516   53.3262 C   0  0  0  0  0  0  0  0  0  0  0  0
   19.1045   42.6296   52.1860 C   0  0  0  0  0  0  0  0  0  0  0  0
   20.4988   42.6173   52.1121 C   0  0  0  0  0  0  0  0  0  0  0  0
   21.2769   43.1278   53.1579 C   0  0  0  0  0  0  0  0  0  0  0  0
   18.4733   42.0942   51.1006 O   0  0  0  0  0  0  0  0  0  0  0  0
   18.4529   40.6830   50.9810 C   0  0  0  0  0  0  0  0  0  0  0  0
   18.5263   40.0914   52.1933 F   0  0  0  0  0  0  0  0  0  0  0  0
   17.2877   40.3124   50.4038 F   0  0  0  0  0  0  0  0  0  0  0  0
   19.4635   40.2426   50.2012 F   0  0  0  0  0  0  0  0  0  0  0  0
 14 15  1  0
 15 16  2  0
 15  7  1  0
  7  8  2  0
  8  9  1  0
  9 10  1  0
  9 11  2  0
 11 12  1  0
 12  1  1  0
  1  2  2  0
  2  3  1  0
  3 19  1  0
 19 21  1  0
 21 22  2  0
 22 23  1  0
 23 24  2  0
 24 27  1  0
 27 28  1  0
 28 29  1  0
 28 30  1  0
 28 31  1  0
 24 25  1  0
 25 26  2  0
  3  4  2  0
  4  5  1  0
  5  6  2  0
 12 13  2  0
 13  7  1  0
  6  1  1  0
 26 21  1  0
 14 17  1  0
 14 18  1  0
 19 20  1  0
M  END
> <minimizedAffinity>
-8.33623

> <CNNscore>
0.8811845183

> <CNNaffinity>
6.8042283058

> <CNN_VS>
5.9957804680

> <CNNaffinity_variance>
0.3308149278

$$$$



 31 33  0  0  0  0  0  0  0  0999 V2000
   21.3963   44.4868   56.0006 C   0  0  0  0  0  0  0  0  0  0  0  0
   20.2707   44.3314   55.2085 C   0  0  0  0  0  0  0  0  0  0  0  0
   20.4543   44.0066   53.8734 C   0  0  0  0  0  0  0  0  0  0  0  0
   21.6815   43.8309   53.3625 N   0  0  0  0  0  0  0  0  0  0  0  0
   22.7122   43.9985   54.1971 C   0  0  0  0  0  0  0  0  0  0  0  0
   22.6344   44.3199   55.4938 N   0  0  0  0  0  0  0  0  0  0  0  0
   21.9321   46.2670   59.3408 C   0  0  0  0  0  0  0  0  0  0  0  0
   21.1880   45.4639   60.2063 C   0  0  0  0  0  0  0  0  0  0  0  0
   20.5362   44.3449   59.6986 C   0  0  0  0  0  0  0  0  0  0  0  0
   19.5315   43.2419   60.8632 Br  0  0  0  0  0  0  0  0  0  0  0  0
   20.6097   44.0281   58.3402 C   0  0  0  0  0  0  0  0  0  0  0  0
   21.3371   44.8303   57.4397 C   0  0  0  0  0  0  0  0  0  0  0  0
   21.9986   45.9524   57.9724 C   0  0  0  0  0  0  0  0  0  0  0  0
   22.5890   47.7778   61.1437 N   0  0  0  0  0  0  0  0  0  0  0  0
   22.6484   47.4818   59.8110 C   0  0  0  0  0  0  0  0  0  0  0  0
   23.2952   48.1784   59.0381 O   0  0  0  0  0  0  0  0  0  0  0  0
   23.0509   48.5743   61.4922 H   0  0  0  0  0  0  0  0  0  0  0  0
   22.0842   47.1945   61.7555 H   0  0  0  0  0  0  0  0  0  0  0  0
   19.2949   43.8481   53.0745 N   0  0  0  0  0  0  0  0  0  0  0  0
   18.6483   44.5897   53.1101 H   0  0  0  0  0  0  0  0  0  0  0  0
   18.9426   42.7705   52.2347 C   0  0  0  0  0  0  0  0  0  0  0  0
   19.9571   42.0411   51.5984 C   0  0  0  0  0  0  0  0  0  0  0  0
   19.6617   41.0040   50.7020 C   0  0  0  0  0  0  0  0  0  0  0  0
   18.3377   40.6898   50.4053 C   0  0  0  0  0  0  0  0  0  0  0  0
   17.3201   41.4295   51.0111 C   0  0  0  0  0  0  0  0  0  0  0  0
   17.6202   42.4620   51.9076 C   0  0  0  0  0  0  0  0  0  0  0  0
   17.9027   39.7203   49.5487 O   0  0  0  0  0  0  0  0  0  0  0  0
   17.1657   38.6415   50.0954 C   0  0  0  0  0  0  0  0  0  0  0  0
   17.9839   37.6331   50.4679 F   0  0  0  0  0  0  0  0  0  0  0  0
   16.5093   39.0762   51.1947 F   0  0  0  0  0  0  0  0  0  0  0  0
   16.2493   38.1793   49.2179 F   0  0  0  0  0  0  0  0  0  0  0  0
 14 15  1  0
 15 16  2  0
 15  7  1  0
  7  8  2  0
  8  9  1  0
  9 10  1  0
  9 11  2  0
 11 12  1  0
 12  1  1  0
  1  2  2  0
  2  3  1  0
  3 19  1  0
 19 21  1  0
 21 22  2  0
 22 23  1  0
 23 24  2  0
 24 27  1  0
 27 28  1  0
 28 29  1  0
 28 30  1  0
 28 31  1  0
 24 25  1  0
 25 26  2  0
  3  4  2  0
  4  5  1  0
  5  6  2  0
 12 13  2  0
 13  7  1  0
  6  1  1  0
 26 21  1  0
 14 17  1  0
 14 18  1  0
 19 20  1  0
M  END
> <minimizedAffinity>
-9.28025

> <CNNscore>
0.8739833832

> <CNNaffinity>
6.6280531883

> <CNN_VS>
5.7928085327

> <CNNaffinity_variance>
0.1606390625

$$$$



 31 33  0  0  0  0  0  0  0  0999 V2000
   22.7449   44.4526   54.3505 C   0  0  0  0  0  0  0  0  0  0  0  0
   21.6160   44.2814   53.5662 C   0  0  0  0  0  0  0  0  0  0  0  0
   20.4056   44.0649   54.2063 C   0  0  0  0  0  0  0  0  0  0  0  0
   20.3213   44.0373   55.5444 N   0  0  0  0  0  0  0  0  0  0  0  0
   21.4588   44.2131   56.2243 C   0  0  0  0  0  0  0  0  0  0  0  0
   22.6711   44.4185   55.6962 N   0  0  0  0  0  0  0  0  0  0  0  0
   25.5904   45.2202   51.9161 C   0  0  0  0  0  0  0  0  0  0  0  0
   26.7010   45.1616   52.7592 C   0  0  0  0  0  0  0  0  0  0  0  0
   26.5146   44.8563   54.1034 C   0  0  0  0  0  0  0  0  0  0  0  0
   28.0132   44.7642   55.2558 Br  0  0  0  0  0  0  0  0  0  0  0  0
   25.2358   44.6221   54.6141 C   0  0  0  0  0  0  0  0  0  0  0  0
   24.0948   44.6930   53.7915 C   0  0  0  0  0  0  0  0  0  0  0  0
   24.3030   44.9928   52.4324 C   0  0  0  0  0  0  0  0  0  0  0  0
   25.3367   46.7987   50.0698 N   0  0  0  0  0  0  0  0  0  0  0  0
   25.7128   45.5478   50.4712 C   0  0  0  0  0  0  0  0  0  0  0  0
   26.1629   44.7369   49.6707 O   0  0  0  0  0  0  0  0  0  0  0  0
   25.4035   47.0521   49.1208 H   0  0  0  0  0  0  0  0  0  0  0  0
   24.9989   47.4466   50.7297 H   0  0  0  0  0  0  0  0  0  0  0  0
   19.2582   43.8936   53.3930 N   0  0  0  0  0  0  0  0  0  0  0  0
   18.5544   44.5735   53.5006 H   0  0  0  0  0  0  0  0  0  0  0  0
   18.9886   42.8796   52.4497 C   0  0  0  0  0  0  0  0  0  0  0  0
   17.6805   42.3888   52.3303 C   0  0  0  0  0  0  0  0  0  0  0  0
   17.3699   41.3365   51.4572 C   0  0  0  0  0  0  0  0  0  0  0  0
   18.3718   40.7356   50.6991 C   0  0  0  0  0  0  0  0  0  0  0  0
   19.6828   41.1973   50.8324 C   0  0  0  0  0  0  0  0  0  0  0  0
   19.9873   42.2502   51.7032 C   0  0  0  0  0  0  0  0  0  0  0  0
   18.2203   39.7006   49.8223 O   0  0  0  0  0  0  0  0  0  0  0  0
   17.2376   38.7249   50.1196 C   0  0  0  0  0  0  0  0  0  0  0  0
   16.3802   38.5683   49.0874 F   0  0  0  0  0  0  0  0  0  0  0  0
   17.8527   37.5404   50.3366 F   0  0  0  0  0  0  0  0  0  0  0  0
   16.5482   39.0476   51.2349 F   0  0  0  0  0  0  0  0  0  0  0  0
 14 15  1  0
 15 16  2  0
 15  7  1  0
  7  8  2  0
  8  9  1  0
  9 10  1  0
  9 11  2  0
 11 12  1  0
 12  1  1  0
  1  2  2  0
  2  3  1  0
  3 19  1  0
 19 21  1  0
 21 22  2  0
 22 23  1  0
 23 24  2  0
 24 27  1  0
 27 28  1  0
 28 29  1  0
 28 30  1  0
 28 31  1  0
 24 25  1  0
 25 26  2  0
  3  4  2  0
  4  5  1  0
  5  6  2  0
 12 13  2  0
 13  7  1  0
  6  1  1  0
 26 21  1  0
 14 17  1  0
 14 18  1  0
 19 20  1  0
M  END
> <minimizedAffinity>
-9.90531

> <CNNscore>
0.8661614060

> <CNNaffinity>
6.9002780914

> <CNN_VS>
5.9767546654

> <CNNaffinity_variance>
0.0900509432

$$$$



 31 33  0  0  0  0  0  0  0  0999 V2000
   21.9407   44.9345   55.5993 C   0  0  0  0  0  0  0  0  0  0  0  0
   20.7049   44.7339   55.0067 C   0  0  0  0  0  0  0  0  0  0  0  0
   20.6642   44.0472   53.8032 C   0  0  0  0  0  0  0  0  0  0  0  0
   21.7824   43.5748   53.2334 N   0  0  0  0  0  0  0  0  0  0  0  0
   22.9319   43.8114   53.8734 C   0  0  0  0  0  0  0  0  0  0  0  0
   23.0711   44.4702   55.0299 N   0  0  0  0  0  0  0  0  0  0  0  0
   21.5328   46.0381   59.2364 C   0  0  0  0  0  0  0  0  0  0  0  0
   22.5050   47.0346   59.3353 C   0  0  0  0  0  0  0  0  0  0  0  0
   23.2686   47.3482   58.2157 C   0  0  0  0  0  0  0  0  0  0  0  0
   24.5839   48.7042   58.3335 Br  0  0  0  0  0  0  0  0  0  0  0  0
   23.0805   46.6720   57.0081 C   0  0  0  0  0  0  0  0  0  0  0  0
   22.1205   45.6492   56.8836 C   0  0  0  0  0  0  0  0  0  0  0  0
   21.3500   45.3523   58.0232 C   0  0  0  0  0  0  0  0  0  0  0  0
   21.0993   46.0195   61.6398 N   0  0  0  0  0  0  0  0  0  0  0  0
   20.6852   45.6449   60.3926 C   0  0  0  0  0  0  0  0  0  0  0  0
   19.6361   45.0325   60.2335 O   0  0  0  0  0  0  0  0  0  0  0  0
   20.5639   45.7772   62.4297 H   0  0  0  0  0  0  0  0  0  0  0  0
   21.9330   46.5318   61.7485 H   0  0  0  0  0  0  0  0  0  0  0  0
   19.3939   43.8466   53.2085 N   0  0  0  0  0  0  0  0  0  0  0  0
   18.7098   44.5198   53.4274 H   0  0  0  0  0  0  0  0  0  0  0  0
   18.9776   42.8116   52.3446 C   0  0  0  0  0  0  0  0  0  0  0  0
   19.9397   42.1206   51.5942 C   0  0  0  0  0  0  0  0  0  0  0  0
   19.5757   41.1294   50.6716 C   0  0  0  0  0  0  0  0  0  0  0  0
   18.2328   40.8244   50.4637 C   0  0  0  0  0  0  0  0  0  0  0  0
   17.2652   41.5272   51.1845 C   0  0  0  0  0  0  0  0  0  0  0  0
   17.6339   42.5138   52.1067 C   0  0  0  0  0  0  0  0  0  0  0  0
   17.7327   39.8978   49.5951 O   0  0  0  0  0  0  0  0  0  0  0  0
   17.2148   38.6974   50.1398 C   0  0  0  0  0  0  0  0  0  0  0  0
   16.5821   37.9681   49.1948 F   0  0  0  0  0  0  0  0  0  0  0  0
   18.2410   37.9599   50.6207 F   0  0  0  0  0  0  0  0  0  0  0  0
   16.3668   38.9480   51.1603 F   0  0  0  0  0  0  0  0  0  0  0  0
 14 15  1  0
 15 16  2  0
 15  7  1  0
  7  8  2  0
  8  9  1  0
  9 10  1  0
  9 11  2  0
 11 12  1  0
 12  1  1  0
  1  2  2  0
  2  3  1  0
  3 19  1  0
 19 21  1  0
 21 22  2  0
 22 23  1  0
 23 24  2  0
 24 27  1  0
 27 28  1  0
 28 29  1  0
 28 30  1  0
 28 31  1  0
 24 25  1  0
 25 26  2  0
  3  4  2  0
  4  5  1  0
  5  6  2  0
 12 13  2  0
 13  7  1  0
  6  1  1  0
 26 21  1  0
 14 17  1  0
 14 18  1  0
 19 20  1  0
M  END
> <minimizedAffinity>
-9.28039

> <CNNscore>
0.8462140560

> <CNNaffinity>
6.6636071205

> <CNN_VS>
5.6388378143

> <CNNaffinity_variance>
0.1087359190

$$$$



 31 33  0  0  0  0  0  0  0  0999 V2000
   22.4378   44.3603   55.7628 C   0  0  0  0  0  0  0  0  0  0  0  0
   21.1537   44.3548   55.2434 C   0  0  0  0  0  0  0  0  0  0  0  0
   20.9952   44.0374   53.9033 C   0  0  0  0  0  0  0  0  0  0  0  0
   22.0479   43.7282   53.1323 N   0  0  0  0  0  0  0  0  0  0  0  0
   23.2510   43.7561   53.7144 C   0  0  0  0  0  0  0  0  0  0  0  0
   23.5029   44.0585   54.9933 N   0  0  0  0  0  0  0  0  0  0  0  0
   24.3321   45.1644   58.9843 C   0  0  0  0  0  0  0  0  0  0  0  0
   23.2842   45.3049   59.8953 C   0  0  0  0  0  0  0  0  0  0  0  0
   21.9771   45.1196   59.4569 C   0  0  0  0  0  0  0  0  0  0  0  0
   20.5473   45.2978   60.6842 Br  0  0  0  0  0  0  0  0  0  0  0  0
   21.7066   44.8089   58.1223 C   0  0  0  0  0  0  0  0  0  0  0  0
   22.7420   44.6795   57.1763 C   0  0  0  0  0  0  0  0  0  0  0  0
   24.0585   44.8601   57.6396 C   0  0  0  0  0  0  0  0  0  0  0  0
   26.0512   45.3164   60.7124 N   0  0  0  0  0  0  0  0  0  0  0  0
   25.7524   45.3551   59.3795 C   0  0  0  0  0  0  0  0  0  0  0  0
   26.6310   45.5115   58.5401 O   0  0  0  0  0  0  0  0  0  0  0  0
   26.9809   45.4387   61.0122 H   0  0  0  0  0  0  0  0  0  0  0  0
   25.3367   45.1664   61.3728 H   0  0  0  0  0  0  0  0  0  0  0  0
   19.6767   44.0331   53.3847 N   0  0  0  0  0  0  0  0  0  0  0  0
   19.0910   44.7571   53.7038 H   0  0  0  0  0  0  0  0  0  0  0  0
   19.0903   43.1305   52.4724 C   0  0  0  0  0  0  0  0  0  0  0  0
   17.8224   42.6022   52.7546 C   0  0  0  0  0  0  0  0  0  0  0  0
   17.2221   41.6513   51.9169 C   0  0  0  0  0  0  0  0  0  0  0  0
   17.8922   41.1906   50.7863 C   0  0  0  0  0  0  0  0  0  0  0  0
   19.1676   41.6885   50.5122 C   0  0  0  0  0  0  0  0  0  0  0  0
   19.7614   42.6400   51.3500 C   0  0  0  0  0  0  0  0  0  0  0  0
   17.4397   40.2642   49.8919 O   0  0  0  0  0  0  0  0  0  0  0  0
   17.4447   38.9057   50.2923 C   0  0  0  0  0  0  0  0  0  0  0  0
   16.4206   38.6430   51.1334 F   0  0  0  0  0  0  0  0  0  0  0  0
   17.2960   38.1286   49.1958 F   0  0  0  0  0  0  0  0  0  0  0  0
   18.6121   38.5734   50.8840 F   0  0  0  0  0  0  0  0  0  0  0  0
 14 15  1  0
 15 16  2  0
 15  7  1  0
  7  8  2  0
  8  9  1  0
  9 10  1  0
  9 11  2  0
 11 12  1  0
 12  1  1  0
  1  2  2  0
  2  3  1  0
  3 19  1  0
 19 21  1  0
 21 22  2  0
 22 23  1  0
 23 24  2  0
 24 27  1  0
 27 28  1  0
 28 29  1  0
 28 30  1  0
 28 31  1  0
 24 25  1  0
 25 26  2  0
  3  4  2  0
  4  5  1  0
  5  6  2  0
 12 13  2  0
 13  7  1  0
  6  1  1  0
 26 21  1  0
 14 17  1  0
 14 18  1  0
 19 20  1  0
M  END
> <minimizedAffinity>
-8.73126

> <CNNscore>
0.8342853189

> <CNNaffinity>
6.5125212669

> <CNN_VS>
5.4333009720

> <CNNaffinity_variance>
0.1799796373

$$$$



 31 33  0  0  0  0  0  0  0  0999 V2000
   21.4109   44.2127   55.4063 C   0  0  0  0  0  0  0  0  0  0  0  0
   20.2689   43.9960   54.6530 C   0  0  0  0  0  0  0  0  0  0  0  0
   20.4250   43.6084   53.3313 C   0  0  0  0  0  0  0  0  0  0  0  0
   21.6422   43.4311   52.7973 N   0  0  0  0  0  0  0  0  0  0  0  0
   22.6901   43.6603   53.5950 C   0  0  0  0  0  0  0  0  0  0  0  0
   22.6388   44.0447   54.8757 N   0  0  0  0  0  0  0  0  0  0  0  0
   20.7318   44.2607   59.1679 C   0  0  0  0  0  0  0  0  0  0  0  0
   21.3579   45.4486   59.5483 C   0  0  0  0  0  0  0  0  0  0  0  0
   21.9774   46.2280   58.5769 C   0  0  0  0  0  0  0  0  0  0  0  0
   22.8220   47.8461   59.0778 Br  0  0  0  0  0  0  0  0  0  0  0  0
   21.9883   45.8293   57.2383 C   0  0  0  0  0  0  0  0  0  0  0  0
   21.3813   44.6266   56.8277 C   0  0  0  0  0  0  0  0  0  0  0  0
   20.7506   43.8559   57.8219 C   0  0  0  0  0  0  0  0  0  0  0  0
   20.8367   42.5085   60.8659 N   0  0  0  0  0  0  0  0  0  0  0  0
   20.0568   43.3740   60.1518 C   0  0  0  0  0  0  0  0  0  0  0  0
   18.8477   43.4359   60.3397 O   0  0  0  0  0  0  0  0  0  0  0  0
   20.4252   41.9057   61.5267 H   0  0  0  0  0  0  0  0  0  0  0  0
   21.8100   42.4877   60.7196 H   0  0  0  0  0  0  0  0  0  0  0  0
   19.2492   43.3877   52.5722 N   0  0  0  0  0  0  0  0  0  0  0  0
   18.6273   44.1491   52.5188 H   0  0  0  0  0  0  0  0  0  0  0  0
   18.8497   42.2235   51.8824 C   0  0  0  0  0  0  0  0  0  0  0  0
   17.5566   41.7203   52.0847 C   0  0  0  0  0  0  0  0  0  0  0  0
   17.1302   40.5307   51.4769 C   0  0  0  0  0  0  0  0  0  0  0  0
   18.0017   39.8050   50.6685 C   0  0  0  0  0  0  0  0  0  0  0  0
   19.3010   40.2821   50.4842 C   0  0  0  0  0  0  0  0  0  0  0  0
   19.7209   41.4718   51.0908 C   0  0  0  0  0  0  0  0  0  0  0  0
   17.7307   38.6318   50.0258 O   0  0  0  0  0  0  0  0  0  0  0  0
   16.9145   38.6881   48.8697 C   0  0  0  0  0  0  0  0  0  0  0  0
   17.1050   37.6036   48.0869 F   0  0  0  0  0  0  0  0  0  0  0  0
   15.6180   38.7054   49.2531 F   0  0  0  0  0  0  0  0  0  0  0  0
   17.1534   39.8088   48.1552 F   0  0  0  0  0  0  0  0  0  0  0  0
 14 15  1  0
 15 16  2  0
 15  7  1  0
  7  8  2  0
  8  9  1  0
  9 10  1  0
  9 11  2  0
 11 12  1  0
 12  1  1  0
  1  2  2  0
  2  3  1  0
  3 19  1  0
 19 21  1  0
 21 22  2  0
 22 23  1  0
 23 24  2  0
 24 27  1  0
 27 28  1  0
 28 29  1  0
 28 30  1  0
 28 31  1  0
 24 25  1  0
 25 26  2  0
  3  4  2  0
  4  5  1  0
  5  6  2  0
 12 13  2  0
 13  7  1  0
  6  1  1  0
 26 21  1  0
 14 17  1  0
 14 18  1  0
 19 20  1  0
M  END
> <minimizedAffinity>
-9.90589

> <CNNscore>
0.7907864451

> <CNNaffinity>
6.5784988403

> <CNN_VS>
5.2021875381

> <CNNaffinity_variance>
0.2208477855

$$$$



 31 33  0  0  0  0  0  0  0  0999 V2000
   21.5165   44.1927   55.4386 C   0  0  0  0  0  0  0  0  0  0  0  0
   20.3827   43.9029   54.6974 C   0  0  0  0  0  0  0  0  0  0  0  0
   20.5433   43.5983   53.3546 C   0  0  0  0  0  0  0  0  0  0  0  0
   21.7586   43.5675   52.7887 N   0  0  0  0  0  0  0  0  0  0  0  0
   22.7986   43.8583   53.5766 C   0  0  0  0  0  0  0  0  0  0  0  0
   22.7416   44.1720   54.8762 N   0  0  0  0  0  0  0  0  0  0  0  0
   20.6403   44.1743   59.1594 C   0  0  0  0  0  0  0  0  0  0  0  0
   21.4532   45.2012   59.6415 C   0  0  0  0  0  0  0  0  0  0  0  0
   22.2623   45.8985   58.7505 C   0  0  0  0  0  0  0  0  0  0  0  0
   23.3625   47.2997   59.3896 Br  0  0  0  0  0  0  0  0  0  0  0  0
   22.2768   45.5744   57.3919 C   0  0  0  0  0  0  0  0  0  0  0  0
   21.4817   44.5309   56.8797 C   0  0  0  0  0  0  0  0  0  0  0  0
   20.6617   43.8431   57.7935 C   0  0  0  0  0  0  0  0  0  0  0  0
   20.3470   42.6510   61.0457 N   0  0  0  0  0  0  0  0  0  0  0  0
   19.7560   43.3817   60.0537 C   0  0  0  0  0  0  0  0  0  0  0  0
   18.5376   43.4046   59.9271 O   0  0  0  0  0  0  0  0  0  0  0  0
   19.7938   42.1136   61.6576 H   0  0  0  0  0  0  0  0  0  0  0  0
   21.3261   42.6620   61.1486 H   0  0  0  0  0  0  0  0  0  0  0  0
   19.3762   43.3015   52.6082 N   0  0  0  0  0  0  0  0  0  0  0  0
   18.7513   44.0511   52.4784 H   0  0  0  0  0  0  0  0  0  0  0  0
   18.9890   42.0760   52.0258 C   0  0  0  0  0  0  0  0  0  0  0  0
   19.8615   41.4398   51.1312 C   0  0  0  0  0  0  0  0  0  0  0  0
   19.5002   40.2555   50.4731 C   0  0  0  0  0  0  0  0  0  0  0  0
   18.2430   39.6936   50.6808 C   0  0  0  0  0  0  0  0  0  0  0  0
   17.3556   40.3352   51.5473 C   0  0  0  0  0  0  0  0  0  0  0  0
   17.7221   41.5158   52.2042 C   0  0  0  0  0  0  0  0  0  0  0  0
   17.7525   38.5582   50.1036 O   0  0  0  0  0  0  0  0  0  0  0  0
   16.9704   38.7008   48.9314 C   0  0  0  0  0  0  0  0  0  0  0  0
   15.6541   38.7599   49.2296 F   0  0  0  0  0  0  0  0  0  0  0  0
   17.3133   39.8559   48.3179 F   0  0  0  0  0  0  0  0  0  0  0  0
   17.1931   37.6873   48.0673 F   0  0  0  0  0  0  0  0  0  0  0  0
 14 15  1  0
 15 16  2  0
 15  7  1  0
  7  8  2  0
  8  9  1  0
  9 10  1  0
  9 11  2  0
 11 12  1  0
 12  1  1  0
  1  2  2  0
  2  3  1  0
  3 19  1  0
 19 21  1  0
 21 22  2  0
 22 23  1  0
 23 24  2  0
 24 27  1  0
 27 28  1  0
 28 29  1  0
 28 30  1  0
 28 31  1  0
 24 25  1  0
 25 26  2  0
  3  4  2  0
  4  5  1  0
  5  6  2  0
 12 13  2  0
 13  7  1  0
  6  1  1  0
 26 21  1  0
 14 17  1  0
 14 18  1  0
 19 20  1  0
M  END
> <minimizedAffinity>
-9.49816

> <CNNscore>
0.6884773970

> <CNNaffinity>
6.5196266174

> <CNN_VS>
4.4886155128

> <CNNaffinity_variance>
0.1512919962

$$$$



 31 33  0  0  0  0  0  0  0  0999 V2000
   23.5190   45.2589   55.3866 C   0  0  0  0  0  0  0  0  0  0  0  0
   22.2618   45.0931   54.8293 C   0  0  0  0  0  0  0  0  0  0  0  0
   21.2416   44.6363   55.6493 C   0  0  0  0  0  0  0  0  0  0  0  0
   21.4558   44.3768   56.9474 N   0  0  0  0  0  0  0  0  0  0  0  0
   22.6981   44.5655   57.4035 C   0  0  0  0  0  0  0  0  0  0  0  0
   23.7455   44.9929   56.6887 N   0  0  0  0  0  0  0  0  0  0  0  0
   27.0108   45.5040   53.8503 C   0  0  0  0  0  0  0  0  0  0  0  0
   26.9137   46.6941   53.1278 C   0  0  0  0  0  0  0  0  0  0  0  0
   25.7224   47.4113   53.1623 C   0  0  0  0  0  0  0  0  0  0  0  0
   25.5805   49.0317   52.1947 Br  0  0  0  0  0  0  0  0  0  0  0  0
   24.6287   46.9483   53.8975 C   0  0  0  0  0  0  0  0  0  0  0  0
   24.6909   45.7414   54.6208 C   0  0  0  0  0  0  0  0  0  0  0  0
   25.9070   45.0344   54.5830 C   0  0  0  0  0  0  0  0  0  0  0  0
   28.8410   44.4307   55.0600 N   0  0  0  0  0  0  0  0  0  0  0  0
   28.2492   44.6816   53.8541 C   0  0  0  0  0  0  0  0  0  0  0  0
   28.7087   44.2185   52.8171 O   0  0  0  0  0  0  0  0  0  0  0  0
   29.6626   43.8899   55.1021 H   0  0  0  0  0  0  0  0  0  0  0  0
   28.4458   44.7909   55.8866 H   0  0  0  0  0  0  0  0  0  0  0  0
   19.9599   44.4731   55.0679 N   0  0  0  0  0  0  0  0  0  0  0  0
   19.2315   44.9811   55.4929 H   0  0  0  0  0  0  0  0  0  0  0  0
   19.5872   43.6804   53.9619 C   0  0  0  0  0  0  0  0  0  0  0  0
   18.2596   43.2423   53.8527 C   0  0  0  0  0  0  0  0  0  0  0  0
   17.8502   42.3981   52.8106 C   0  0  0  0  0  0  0  0  0  0  0  0
   18.7714   41.9545   51.8649 C   0  0  0  0  0  0  0  0  0  0  0  0
   20.1020   42.3612   51.9814 C   0  0  0  0  0  0  0  0  0  0  0  0
   20.5051   43.2066   53.0219 C   0  0  0  0  0  0  0  0  0  0  0  0
   18.5208   41.1259   50.8096 O   0  0  0  0  0  0  0  0  0  0  0  0
   18.1071   39.8020   51.0962 C   0  0  0  0  0  0  0  0  0  0  0  0
   18.5086   38.9473   50.1301 F   0  0  0  0  0  0  0  0  0  0  0  0
   18.6720   39.4126   52.2614 F   0  0  0  0  0  0  0  0  0  0  0  0
   16.7662   39.7272   51.2371 F   0  0  0  0  0  0  0  0  0  0  0  0
 14 15  1  0
 15 16  2  0
 15  7  1  0
  7  8  2  0
  8  9  1  0
  9 10  1  0
  9 11  2  0
 11 12  1  0
 12  1  1  0
  1  2  2  0
  2  3  1  0
  3 19  1  0
 19 21  1  0
 21 22  2  0
 22 23  1  0
 23 24  2  0
 24 27  1  0
 27 28  1  0
 28 29  1  0
 28 30  1  0
 28 31  1  0
 24 25  1  0
 25 26  2  0
  3  4  2  0
  4  5  1  0
  5  6  2  0
 12 13  2  0
 13  7  1  0
  6  1  1  0
 26 21  1  0
 14 17  1  0
 14 18  1  0
 19 20  1  0
M  END
> <minimizedAffinity>
-8.46758

> <CNNscore>
0.6805818677

> <CNNaffinity>
6.5122261047

> <CNN_VS>
4.4321031570

> <CNNaffinity_variance>
0.0412580892

$$$$
