


 32 34  0  0  0  0  0  0  0  0999 V2000
    3.8621   31.7006    7.8849 C   0  0  0  0  0  0  0  0  0  0  0  0
    3.7588   31.6330    9.2169 N   0  0  0  0  0  0  0  0  0  0  0  0
    4.3450   30.5900    9.8231 C   0  0  0  0  0  0  0  0  0  0  0  0
    5.0153   29.6027    9.1477 C   0  0  0  0  0  0  0  0  0  0  0  0
    5.0600   29.7251    7.7788 C   0  0  0  0  0  0  0  0  0  0  0  0
    4.5063   30.7780    7.1495 N   0  0  0  0  0  0  0  0  0  0  0  0
    3.3043   32.7448    7.1520 N   0  0  0  0  0  0  0  0  0  0  0  0
    3.1560   33.5549    7.6915 H   0  0  0  0  0  0  0  0  0  0  0  0
    1.9965   33.2902    3.1657 C   0  0  0  0  0  0  0  0  0  0  0  0
    3.1287   32.5131    3.4201 C   0  0  0  0  0  0  0  0  0  0  0  0
    3.5756   32.3222    4.7345 C   0  0  0  0  0  0  0  0  0  0  0  0
    2.9081   32.8984    5.8201 C   0  0  0  0  0  0  0  0  0  0  0  0
    1.7707   33.6771    5.5454 C   0  0  0  0  0  0  0  0  0  0  0  0
    1.3157   33.8741    4.2357 C   0  0  0  0  0  0  0  0  0  0  0  0
    0.6599   34.1889    1.3753 O   0  0  0  0  0  0  0  0  0  0  0  0
    1.5597   33.4653    1.7599 C   0  0  0  0  0  0  0  0  0  0  0  0
    2.2735   32.7221    0.8952 O   0  0  0  0  0  0  0  0  0  0  0  0
    2.9628   32.1707    1.2094 H   0  0  0  0  0  0  0  0  0  0  0  0
    5.7174   28.8154    6.9521 N   0  0  0  0  0  0  0  0  0  0  0  0
    5.2542   28.6782    6.0942 H   0  0  0  0  0  0  0  0  0  0  0  0
    6.8949   28.0462    7.0640 C   0  0  0  0  0  0  0  0  0  0  0  0
    7.3150   27.4660    8.2673 C   0  0  0  0  0  0  0  0  0  0  0  0
    8.5173   26.7622    8.3335 C   0  0  0  0  0  0  0  0  0  0  0  0
    9.0557   25.9789    9.9682 Br  0  0  0  0  0  0  0  0  0  0  0  0
    9.3214   26.6266    7.2076 C   0  0  0  0  0  0  0  0  0  0  0  0
    8.9207   27.1944    5.9971 C   0  0  0  0  0  0  0  0  0  0  0  0
    7.7176   27.9054    5.9171 C   0  0  0  0  0  0  0  0  0  0  0  0
    7.2245   28.4967    4.7798 O   0  0  0  0  0  0  0  0  0  0  0  0
    7.6668   29.8039    4.4626 C   0  0  0  0  0  0  0  0  0  0  0  0
    8.2902   29.8246    3.2653 F   0  0  0  0  0  0  0  0  0  0  0  0
    6.5910   30.6178    4.3890 F   0  0  0  0  0  0  0  0  0  0  0  0
    8.4957   30.2857    5.4124 F   0  0  0  0  0  0  0  0  0  0  0  0
 15 16  2  0
 16 17  1  0
 16  9  1  0
  9 10  2  0
 10 11  1  0
 11 12  2  0
 12  7  1  0
  7  1  1  0
  1  2  2  0
  2  3  1  0
  3  4  2  0
  4  5  1  0
  5 19  1  0
 19 21  1  0
 21 22  2  0
 22 23  1  0
 23 24  1  0
 23 25  2  0
 25 26  1  0
 26 27  2  0
 27 28  1  0
 28 29  1  0
 29 30  1  0
 29 31  1  0
 29 32  1  0
  5  6  2  0
 12 13  1  0
 13 14  2  0
 14  9  1  0
  6  1  1  0
 27 21  1  0
 17 18  1  0
  7  8  1  0
 19 20  1  0
M  END
> <minimizedAffinity>
-10.02657

> <CNNscore>
0.9917765260

> <CNNaffinity>
7.8751487732

> <CNN_VS>
7.8103876114

> <CNNaffinity_variance>
0.0200468469

$$$$



 32 34  0  0  0  0  0  0  0  0999 V2000
    3.8333   31.7400    7.8000 C   0  0  0  0  0  0  0  0  0  0  0  0
    3.8418   31.6460    9.1344 N   0  0  0  0  0  0  0  0  0  0  0  0
    4.4628   30.5838    9.6682 C   0  0  0  0  0  0  0  0  0  0  0  0
    5.0602   29.6028    8.9192 C   0  0  0  0  0  0  0  0  0  0  0  0
    4.9910   29.7531    7.5541 C   0  0  0  0  0  0  0  0  0  0  0  0
    4.4005   30.8254    6.9947 N   0  0  0  0  0  0  0  0  0  0  0  0
    3.2299   32.8058    7.1377 N   0  0  0  0  0  0  0  0  0  0  0  0
    3.0822   33.5851    7.7209 H   0  0  0  0  0  0  0  0  0  0  0  0
    1.9967   33.3564    3.1283 C   0  0  0  0  0  0  0  0  0  0  0  0
    1.2864   33.9747    4.1597 C   0  0  0  0  0  0  0  0  0  0  0  0
    1.6812   33.8028    5.4933 C   0  0  0  0  0  0  0  0  0  0  0  0
    2.7872   33.0150    5.8282 C   0  0  0  0  0  0  0  0  0  0  0  0
    3.4902   32.4007    4.7775 C   0  0  0  0  0  0  0  0  0  0  0  0
    3.1041   32.5658    3.4415 C   0  0  0  0  0  0  0  0  0  0  0  0
    0.6075   34.2597    1.3808 O   0  0  0  0  0  0  0  0  0  0  0  0
    1.5435   33.5658    1.7325 C   0  0  0  0  0  0  0  0  0  0  0  0
    2.2871   32.8931    0.8359 O   0  0  0  0  0  0  0  0  0  0  0  0
    3.0041   32.3636    1.1249 H   0  0  0  0  0  0  0  0  0  0  0  0
    5.5639   28.8530    6.6569 N   0  0  0  0  0  0  0  0  0  0  0  0
    5.4571   27.9158    6.9389 H   0  0  0  0  0  0  0  0  0  0  0  0
    6.2617   28.9783    5.4371 C   0  0  0  0  0  0  0  0  0  0  0  0
    5.6718   29.4767    4.2691 C   0  0  0  0  0  0  0  0  0  0  0  0
    6.3925   29.5264    3.0760 C   0  0  0  0  0  0  0  0  0  0  0  0
    5.5755   30.2145    1.5157 Br  0  0  0  0  0  0  0  0  0  0  0  0
    7.7078   29.0793    3.0242 C   0  0  0  0  0  0  0  0  0  0  0  0
    8.3167   28.5813    4.1772 C   0  0  0  0  0  0  0  0  0  0  0  0
    7.6042   28.5236    5.3807 C   0  0  0  0  0  0  0  0  0  0  0  0
    8.1050   28.0609    6.5729 O   0  0  0  0  0  0  0  0  0  0  0  0
    8.8817   28.9467    7.3585 C   0  0  0  0  0  0  0  0  0  0  0  0
    8.9620   30.1625    6.7771 F   0  0  0  0  0  0  0  0  0  0  0  0
    8.2833   29.0957    8.5605 F   0  0  0  0  0  0  0  0  0  0  0  0
   10.1238   28.4603    7.5634 F   0  0  0  0  0  0  0  0  0  0  0  0
 15 16  2  0
 16 17  1  0
 16  9  1  0
  9 10  2  0
 10 11  1  0
 11 12  2  0
 12  7  1  0
  7  1  1  0
  1  2  2  0
  2  3  1  0
  3  4  2  0
  4  5  1  0
  5 19  1  0
 19 21  1  0
 21 22  2  0
 22 23  1  0
 23 24  1  0
 23 25  2  0
 25 26  1  0
 26 27  2  0
 27 28  1  0
 28 29  1  0
 29 30  1  0
 29 31  1  0
 29 32  1  0
  5  6  2  0
 12 13  1  0
 13 14  2  0
 14  9  1  0
  6  1  1  0
 27 21  1  0
 17 18  1  0
  7  8  1  0
 19 20  1  0
M  END
> <minimizedAffinity>
-9.77761

> <CNNscore>
0.9898853302

> <CNNaffinity>
7.9104943275

> <CNN_VS>
7.8304824829

> <CNNaffinity_variance>
0.0051523070

$$$$



 32 34  0  0  0  0  0  0  0  0999 V2000
    3.9192   31.7495    7.9165 C   0  0  0  0  0  0  0  0  0  0  0  0
    3.7262   31.6833    9.2386 N   0  0  0  0  0  0  0  0  0  0  0  0
    4.2485   30.6277    9.8803 C   0  0  0  0  0  0  0  0  0  0  0  0
    4.9410   29.6267    9.2489 C   0  0  0  0  0  0  0  0  0  0  0  0
    5.0791   29.7489    7.8863 C   0  0  0  0  0  0  0  0  0  0  0  0
    4.5909   30.8138    7.2237 N   0  0  0  0  0  0  0  0  0  0  0  0
    3.4337   32.8058    7.1503 N   0  0  0  0  0  0  0  0  0  0  0  0
    3.3686   33.6478    7.6563 H   0  0  0  0  0  0  0  0  0  0  0  0
    2.0641   33.2768    3.1752 C   0  0  0  0  0  0  0  0  0  0  0  0
    3.2309   32.5498    3.4213 C   0  0  0  0  0  0  0  0  0  0  0  0
    3.6987   32.3841    4.7319 C   0  0  0  0  0  0  0  0  0  0  0  0
    3.0180   32.9362    5.8218 C   0  0  0  0  0  0  0  0  0  0  0  0
    1.8458   33.6645    5.5555 C   0  0  0  0  0  0  0  0  0  0  0  0
    1.3697   33.8360    4.2497 C   0  0  0  0  0  0  0  0  0  0  0  0
    0.6636   34.0979    1.3965 O   0  0  0  0  0  0  0  0  0  0  0  0
    1.6063   33.4267    1.7732 C   0  0  0  0  0  0  0  0  0  0  0  0
    2.3539   32.7252    0.9023 O   0  0  0  0  0  0  0  0  0  0  0  0
    3.0760   32.2138    1.2104 H   0  0  0  0  0  0  0  0  0  0  0  0
    5.7704   28.8257    7.1032 N   0  0  0  0  0  0  0  0  0  0  0  0
    5.3599   27.9310    7.1195 H   0  0  0  0  0  0  0  0  0  0  0  0
    6.9239   28.8808    6.2926 C   0  0  0  0  0  0  0  0  0  0  0  0
    6.8727   28.8865    4.8933 C   0  0  0  0  0  0  0  0  0  0  0  0
    8.0470   28.8851    4.1407 C   0  0  0  0  0  0  0  0  0  0  0  0
    7.9497   28.9043    2.2524 Br  0  0  0  0  0  0  0  0  0  0  0  0
    9.2887   28.8750    4.7657 C   0  0  0  0  0  0  0  0  0  0  0  0
    9.3631   28.8722    6.1596 C   0  0  0  0  0  0  0  0  0  0  0  0
    8.1926   28.8711    6.9271 C   0  0  0  0  0  0  0  0  0  0  0  0
    8.1489   28.8758    8.2997 O   0  0  0  0  0  0  0  0  0  0  0  0
    8.5723   27.7108    8.9843 C   0  0  0  0  0  0  0  0  0  0  0  0
    8.2957   27.7991   10.3028 F   0  0  0  0  0  0  0  0  0  0  0  0
    7.9018   26.6492    8.4857 F   0  0  0  0  0  0  0  0  0  0  0  0
    9.8932   27.4935    8.8129 F   0  0  0  0  0  0  0  0  0  0  0  0
 15 16  2  0
 16 17  1  0
 16  9  1  0
  9 10  2  0
 10 11  1  0
 11 12  2  0
 12  7  1  0
  7  1  1  0
  1  2  2  0
  2  3  1  0
  3  4  2  0
  4  5  1  0
  5 19  1  0
 19 21  1  0
 21 22  2  0
 22 23  1  0
 23 24  1  0
 23 25  2  0
 25 26  1  0
 26 27  2  0
 27 28  1  0
 28 29  1  0
 29 30  1  0
 29 31  1  0
 29 32  1  0
  5  6  2  0
 12 13  1  0
 13 14  2  0
 14  9  1  0
  6  1  1  0
 27 21  1  0
 17 18  1  0
  7  8  1  0
 19 20  1  0
M  END
> <minimizedAffinity>
-9.94012

> <CNNscore>
0.9864568114

> <CNNaffinity>
7.7781162262

> <CNN_VS>
7.6727757454

> <CNNaffinity_variance>
0.0051446459

$$$$



 32 34  0  0  0  0  0  0  0  0999 V2000
    3.6832   31.6892    7.5379 C   0  0  0  0  0  0  0  0  0  0  0  0
    3.6820   31.9673    8.8464 N   0  0  0  0  0  0  0  0  0  0  0  0
    4.3372   31.1184    9.6521 C   0  0  0  0  0  0  0  0  0  0  0  0
    4.9783   29.9928    9.2025 C   0  0  0  0  0  0  0  0  0  0  0  0
    4.9170   29.7579    7.8490 C   0  0  0  0  0  0  0  0  0  0  0  0
    4.2922   30.6106    7.0159 N   0  0  0  0  0  0  0  0  0  0  0  0
    3.0469   32.5067    6.6076 N   0  0  0  0  0  0  0  0  0  0  0  0
    2.3599   33.0844    7.0120 H   0  0  0  0  0  0  0  0  0  0  0  0
    3.5316   32.9843    2.4320 C   0  0  0  0  0  0  0  0  0  0  0  0
    2.4231   33.5488    3.0669 C   0  0  0  0  0  0  0  0  0  0  0  0
    2.2471   33.4001    4.4492 C   0  0  0  0  0  0  0  0  0  0  0  0
    3.1669   32.6893    5.2268 C   0  0  0  0  0  0  0  0  0  0  0  0
    4.2764   32.1282    4.5712 C   0  0  0  0  0  0  0  0  0  0  0  0
    4.4617   32.2708    3.1904 C   0  0  0  0  0  0  0  0  0  0  0  0
    4.1061   34.1595    0.4101 O   0  0  0  0  0  0  0  0  0  0  0  0
    3.6774   33.1666    0.9681 C   0  0  0  0  0  0  0  0  0  0  0  0
    3.2776   32.0912    0.2659 O   0  0  0  0  0  0  0  0  0  0  0  0
    2.9501   31.3353    0.7124 H   0  0  0  0  0  0  0  0  0  0  0  0
    5.5320   28.6682    7.2347 N   0  0  0  0  0  0  0  0  0  0  0  0
    5.1638   27.8056    7.5342 H   0  0  0  0  0  0  0  0  0  0  0  0
    6.5618   28.5190    6.2817 C   0  0  0  0  0  0  0  0  0  0  0  0
    6.4683   29.0129    4.9748 C   0  0  0  0  0  0  0  0  0  0  0  0
    7.4939   28.7880    4.0566 C   0  0  0  0  0  0  0  0  0  0  0  0
    7.3474   29.4757    2.3013 Br  0  0  0  0  0  0  0  0  0  0  0  0
    8.6252   28.0671    4.4212 C   0  0  0  0  0  0  0  0  0  0  0  0
    8.7406   27.5680    5.7196 C   0  0  0  0  0  0  0  0  0  0  0  0
    7.7179   27.7844    6.6504 C   0  0  0  0  0  0  0  0  0  0  0  0
    7.7299   27.3467    7.9521 O   0  0  0  0  0  0  0  0  0  0  0  0
    8.5287   28.0512    8.8851 C   0  0  0  0  0  0  0  0  0  0  0  0
    9.8337   27.7401    8.7344 F   0  0  0  0  0  0  0  0  0  0  0  0
    8.3854   29.3761    8.6628 F   0  0  0  0  0  0  0  0  0  0  0  0
    8.1456   27.7927   10.1532 F   0  0  0  0  0  0  0  0  0  0  0  0
 15 16  2  0
 16 17  1  0
 16  9  1  0
  9 10  2  0
 10 11  1  0
 11 12  2  0
 12  7  1  0
  7  1  1  0
  1  2  2  0
  2  3  1  0
  3  4  2  0
  4  5  1  0
  5 19  1  0
 19 21  1  0
 21 22  2  0
 22 23  1  0
 23 24  1  0
 23 25  2  0
 25 26  1  0
 26 27  2  0
 27 28  1  0
 28 29  1  0
 29 30  1  0
 29 31  1  0
 29 32  1  0
  5  6  2  0
 12 13  1  0
 13 14  2  0
 14  9  1  0
  6  1  1  0
 27 21  1  0
 17 18  1  0
  7  8  1  0
 19 20  1  0
M  END
> <minimizedAffinity>
-8.83134

> <CNNscore>
0.9719224572

> <CNNaffinity>
7.7428174019

> <CNN_VS>
7.5254182816

> <CNNaffinity_variance>
0.0201730933

$$$$



 32 34  0  0  0  0  0  0  0  0999 V2000
    3.9702   31.6213    7.6809 C   0  0  0  0  0  0  0  0  0  0  0  0
    3.9636   31.4765    9.0107 N   0  0  0  0  0  0  0  0  0  0  0  0
    4.5832   30.3972    9.5110 C   0  0  0  0  0  0  0  0  0  0  0  0
    5.1936   29.4480    8.7323 C   0  0  0  0  0  0  0  0  0  0  0  0
    5.1396   29.6499    7.3732 C   0  0  0  0  0  0  0  0  0  0  0  0
    4.5508   30.7403    6.8481 N   0  0  0  0  0  0  0  0  0  0  0  0
    3.3698   32.7091    7.0525 N   0  0  0  0  0  0  0  0  0  0  0  0
    3.2329   33.4734    7.6578 H   0  0  0  0  0  0  0  0  0  0  0  0
    1.8884   33.5238    3.1744 C   0  0  0  0  0  0  0  0  0  0  0  0
    3.0980   32.8415    3.3215 C   0  0  0  0  0  0  0  0  0  0  0  0
    3.6032   32.5635    4.5988 C   0  0  0  0  0  0  0  0  0  0  0  0
    2.9182   32.9570    5.7529 C   0  0  0  0  0  0  0  0  0  0  0  0
    1.7025   33.6424    5.5858 C   0  0  0  0  0  0  0  0  0  0  0  0
    1.1889   33.9253    4.3141 C   0  0  0  0  0  0  0  0  0  0  0  0
    0.5006   34.5700    1.5073 O   0  0  0  0  0  0  0  0  0  0  0  0
    1.3919   33.7965    1.8044 C   0  0  0  0  0  0  0  0  0  0  0  0
    2.0378   33.0840    0.8638 O   0  0  0  0  0  0  0  0  0  0  0  0
    2.7217   32.4931    1.1110 H   0  0  0  0  0  0  0  0  0  0  0  0
    5.7268   28.7869    6.4492 N   0  0  0  0  0  0  0  0  0  0  0  0
    5.1371   28.0389    6.1999 H   0  0  0  0  0  0  0  0  0  0  0  0
    6.9733   28.7405    5.7898 C   0  0  0  0  0  0  0  0  0  0  0  0
    8.1935   28.9211    6.4525 C   0  0  0  0  0  0  0  0  0  0  0  0
    9.3935   28.9211    5.7416 C   0  0  0  0  0  0  0  0  0  0  0  0
   11.0281   29.1559    6.6626 Br  0  0  0  0  0  0  0  0  0  0  0  0
    9.3996   28.7451    4.3626 C   0  0  0  0  0  0  0  0  0  0  0  0
    8.1950   28.5604    3.6820 C   0  0  0  0  0  0  0  0  0  0  0  0
    6.9833   28.5605    4.3828 C   0  0  0  0  0  0  0  0  0  0  0  0
    5.7446   28.3811    3.8174 O   0  0  0  0  0  0  0  0  0  0  0  0
    5.0772   29.5175    3.2995 C   0  0  0  0  0  0  0  0  0  0  0  0
    5.7872   30.6417    3.5333 F   0  0  0  0  0  0  0  0  0  0  0  0
    4.9511   29.3721    1.9622 F   0  0  0  0  0  0  0  0  0  0  0  0
    3.8419   29.6445    3.8281 F   0  0  0  0  0  0  0  0  0  0  0  0
 15 16  2  0
 16 17  1  0
 16  9  1  0
  9 10  2  0
 10 11  1  0
 11 12  2  0
 12  7  1  0
  7  1  1  0
  1  2  2  0
  2  3  1  0
  3  4  2  0
  4  5  1  0
  5 19  1  0
 19 21  1  0
 21 22  2  0
 22 23  1  0
 23 24  1  0
 23 25  2  0
 25 26  1  0
 26 27  2  0
 27 28  1  0
 28 29  1  0
 29 30  1  0
 29 31  1  0
 29 32  1  0
  5  6  2  0
 12 13  1  0
 13 14  2  0
 14  9  1  0
  6  1  1  0
 27 21  1  0
 17 18  1  0
  7  8  1  0
 19 20  1  0
M  END
> <minimizedAffinity>
-8.13144

> <CNNscore>
0.9683101773

> <CNNaffinity>
7.7794876099

> <CNN_VS>
7.5329570770

> <CNNaffinity_variance>
0.0236595366

$$$$



 32 34  0  0  0  0  0  0  0  0999 V2000
    4.0012   31.3475    6.4445 C   0  0  0  0  0  0  0  0  0  0  0  0
    3.5287   31.9445    7.5445 N   0  0  0  0  0  0  0  0  0  0  0  0
    3.8714   31.4090    8.7255 C   0  0  0  0  0  0  0  0  0  0  0  0
    4.6535   30.2895    8.8488 C   0  0  0  0  0  0  0  0  0  0  0  0
    5.0827   29.7153    7.6754 C   0  0  0  0  0  0  0  0  0  0  0  0
    4.7780   30.2511    6.4789 N   0  0  0  0  0  0  0  0  0  0  0  0
    3.7210   31.8237    5.1665 N   0  0  0  0  0  0  0  0  0  0  0  0
    4.2423   31.3694    4.4657 H   0  0  0  0  0  0  0  0  0  0  0  0
    1.0889   34.8223    3.7596 C   0  0  0  0  0  0  0  0  0  0  0  0
    1.8267   34.0674    2.8451 C   0  0  0  0  0  0  0  0  0  0  0  0
    2.7031   33.0703    3.2940 C   0  0  0  0  0  0  0  0  0  0  0  0
    2.8638   32.8038    4.6575 C   0  0  0  0  0  0  0  0  0  0  0  0
    2.1133   33.5730    5.5634 C   0  0  0  0  0  0  0  0  0  0  0  0
    1.2348   34.5717    5.1254 C   0  0  0  0  0  0  0  0  0  0  0  0
   -0.0763   36.0798    2.0684 O   0  0  0  0  0  0  0  0  0  0  0  0
    0.1739   35.8666    3.2401 C   0  0  0  0  0  0  0  0  0  0  0  0
   -0.3890   36.6002    4.2170 O   0  0  0  0  0  0  0  0  0  0  0  0
   -0.1846   36.4218    5.1139 H   0  0  0  0  0  0  0  0  0  0  0  0
    5.8982   28.5856    7.6318 N   0  0  0  0  0  0  0  0  0  0  0  0
    5.6043   27.8808    8.2532 H   0  0  0  0  0  0  0  0  0  0  0  0
    7.0486   28.2216    6.9006 C   0  0  0  0  0  0  0  0  0  0  0  0
    7.2412   28.5715    5.5584 C   0  0  0  0  0  0  0  0  0  0  0  0
    8.3722   28.1369    4.8675 C   0  0  0  0  0  0  0  0  0  0  0  0
    8.6133   28.6331    3.0588 Br  0  0  0  0  0  0  0  0  0  0  0  0
    9.3266   27.3465    5.4974 C   0  0  0  0  0  0  0  0  0  0  0  0
    9.1564   26.9883    6.8357 C   0  0  0  0  0  0  0  0  0  0  0  0
    8.0249   27.4155    7.5403 C   0  0  0  0  0  0  0  0  0  0  0  0
    7.7606   27.1291    8.8573 O   0  0  0  0  0  0  0  0  0  0  0  0
    8.8454   26.7638    9.6908 C   0  0  0  0  0  0  0  0  0  0  0  0
   10.0055   27.2706    9.2220 F   0  0  0  0  0  0  0  0  0  0  0  0
    8.6333   27.2737   10.9238 F   0  0  0  0  0  0  0  0  0  0  0  0
    8.9495   25.4228    9.8014 F   0  0  0  0  0  0  0  0  0  0  0  0
 15 16  2  0
 16 17  1  0
 16  9  1  0
  9 10  2  0
 10 11  1  0
 11 12  2  0
 12  7  1  0
  7  1  1  0
  1  2  2  0
  2  3  1  0
  3  4  2  0
  4  5  1  0
  5 19  1  0
 19 21  1  0
 21 22  2  0
 22 23  1  0
 23 24  1  0
 23 25  2  0
 25 26  1  0
 26 27  2  0
 27 28  1  0
 28 29  1  0
 29 30  1  0
 29 31  1  0
 29 32  1  0
  5  6  2  0
 12 13  1  0
 13 14  2  0
 14  9  1  0
  6  1  1  0
 27 21  1  0
 17 18  1  0
  7  8  1  0
 19 20  1  0
M  END
> <minimizedAffinity>
-9.06190

> <CNNscore>
0.8436053395

> <CNNaffinity>
7.3623414040

> <CNN_VS>
6.2109103203

> <CNNaffinity_variance>
0.0243318975

$$$$



 32 34  0  0  0  0  0  0  0  0999 V2000
    3.7670   31.5435    5.8161 C   0  0  0  0  0  0  0  0  0  0  0  0
    3.5516   32.1480    6.9898 N   0  0  0  0  0  0  0  0  0  0  0  0
    4.0893   31.5781    8.0785 C   0  0  0  0  0  0  0  0  0  0  0  0
    4.8189   30.4178    8.0414 C   0  0  0  0  0  0  0  0  0  0  0  0
    4.9787   29.8394    6.8041 C   0  0  0  0  0  0  0  0  0  0  0  0
    4.4753   30.4078    5.6929 N   0  0  0  0  0  0  0  0  0  0  0  0
    3.2684   32.0523    4.6198 N   0  0  0  0  0  0  0  0  0  0  0  0
    3.5295   31.5155    3.8369 H   0  0  0  0  0  0  0  0  0  0  0  0
    0.8455   35.4070    3.7399 C   0  0  0  0  0  0  0  0  0  0  0  0
    1.5214   34.7542    2.7067 C   0  0  0  0  0  0  0  0  0  0  0  0
    2.3281   33.6415    2.9806 C   0  0  0  0  0  0  0  0  0  0  0  0
    2.4792   33.1562    4.2835 C   0  0  0  0  0  0  0  0  0  0  0  0
    1.7916   33.8255    5.3106 C   0  0  0  0  0  0  0  0  0  0  0  0
    0.9830   34.9382    5.0478 C   0  0  0  0  0  0  0  0  0  0  0  0
   -1.1649   36.5477    3.0642 O   0  0  0  0  0  0  0  0  0  0  0  0
    0.0032   36.5798    3.4042 C   0  0  0  0  0  0  0  0  0  0  0  0
    0.6658   37.7457    3.5102 O   0  0  0  0  0  0  0  0  0  0  0  0
    1.5650   37.7513    3.7734 H   0  0  0  0  0  0  0  0  0  0  0  0
    5.7079   28.6695    6.5968 N   0  0  0  0  0  0  0  0  0  0  0  0
    5.2380   28.0266    6.0179 H   0  0  0  0  0  0  0  0  0  0  0  0
    6.9655   28.1963    7.0272 C   0  0  0  0  0  0  0  0  0  0  0  0
    7.2568   27.9168    8.3680 C   0  0  0  0  0  0  0  0  0  0  0  0
    8.5348   27.5047    8.7452 C   0  0  0  0  0  0  0  0  0  0  0  0
    8.8983   27.1229   10.5611 Br  0  0  0  0  0  0  0  0  0  0  0  0
    9.5428   27.3671    7.7978 C   0  0  0  0  0  0  0  0  0  0  0  0
    9.2738   27.6376    6.4551 C   0  0  0  0  0  0  0  0  0  0  0  0
    7.9963   28.0542    6.0631 C   0  0  0  0  0  0  0  0  0  0  0  0
    7.6204   28.3394    4.7733 O   0  0  0  0  0  0  0  0  0  0  0  0
    7.9622   29.6075    4.2441 C   0  0  0  0  0  0  0  0  0  0  0  0
    8.5159   30.3924    5.1927 F   0  0  0  0  0  0  0  0  0  0  0  0
    8.8719   29.4340    3.2604 F   0  0  0  0  0  0  0  0  0  0  0  0
    6.8846   30.2262    3.7174 F   0  0  0  0  0  0  0  0  0  0  0  0
 15 16  2  0
 16 17  1  0
 16  9  1  0
  9 10  2  0
 10 11  1  0
 11 12  2  0
 12  7  1  0
  7  1  1  0
  1  2  2  0
  2  3  1  0
  3  4  2  0
  4  5  1  0
  5 19  1  0
 19 21  1  0
 21 22  2  0
 22 23  1  0
 23 24  1  0
 23 25  2  0
 25 26  1  0
 26 27  2  0
 27 28  1  0
 28 29  1  0
 29 30  1  0
 29 31  1  0
 29 32  1  0
  5  6  2  0
 12 13  1  0
 13 14  2  0
 14  9  1  0
  6  1  1  0
 27 21  1  0
 17 18  1  0
  7  8  1  0
 19 20  1  0
M  END
> <minimizedAffinity>
-8.30083

> <CNNscore>
0.6301545501

> <CNNaffinity>
7.3500161171

> <CNN_VS>
4.6316461563

> <CNNaffinity_variance>
0.0455858223

$$$$



 32 34  0  0  0  0  0  0  0  0999 V2000
    5.1396   29.6581    7.6016 C   0  0  0  0  0  0  0  0  0  0  0  0
    4.4870   29.7026    8.7685 N   0  0  0  0  0  0  0  0  0  0  0  0
    3.7138   30.7748    8.9956 C   0  0  0  0  0  0  0  0  0  0  0  0
    3.5818   31.8124    8.1090 C   0  0  0  0  0  0  0  0  0  0  0  0
    4.3009   31.7097    6.9414 C   0  0  0  0  0  0  0  0  0  0  0  0
    5.0595   30.6301    6.6766 N   0  0  0  0  0  0  0  0  0  0  0  0
    5.9597   28.5880    7.2534 N   0  0  0  0  0  0  0  0  0  0  0  0
    5.7645   28.2320    6.3566 H   0  0  0  0  0  0  0  0  0  0  0  0
    9.1268   26.4539    9.0737 C   0  0  0  0  0  0  0  0  0  0  0  0
    8.4288   27.4137    9.8100 C   0  0  0  0  0  0  0  0  0  0  0  0
    7.3771   28.1297    9.2225 C   0  0  0  0  0  0  0  0  0  0  0  0
    6.9987   27.9071    7.8946 C   0  0  0  0  0  0  0  0  0  0  0  0
    7.7121   26.9376    7.1689 C   0  0  0  0  0  0  0  0  0  0  0  0
    8.7646   26.2165    7.7464 C   0  0  0  0  0  0  0  0  0  0  0  0
   10.6595   25.9295   10.8556 O   0  0  0  0  0  0  0  0  0  0  0  0
   10.2321   25.7205    9.7355 C   0  0  0  0  0  0  0  0  0  0  0  0
   10.7547   24.7535    8.9600 O   0  0  0  0  0  0  0  0  0  0  0  0
   10.4129   24.6067    8.1000 H   0  0  0  0  0  0  0  0  0  0  0  0
    4.2600   32.6710    5.9327 N   0  0  0  0  0  0  0  0  0  0  0  0
    4.5092   33.5681    6.2525 H   0  0  0  0  0  0  0  0  0  0  0  0
    3.9430   32.6518    4.5579 C   0  0  0  0  0  0  0  0  0  0  0  0
    2.8563   33.3493    4.0163 C   0  0  0  0  0  0  0  0  0  0  0  0
    2.5556   33.2498    2.6580 C   0  0  0  0  0  0  0  0  0  0  0  0
    1.0891   34.2111    1.9503 Br  0  0  0  0  0  0  0  0  0  0  0  0
    3.3269   32.4545    1.8184 C   0  0  0  0  0  0  0  0  0  0  0  0
    4.4167   31.7528    2.3364 C   0  0  0  0  0  0  0  0  0  0  0  0
    4.7283   31.8417    3.6981 C   0  0  0  0  0  0  0  0  0  0  0  0
    5.7780   31.2023    4.3108 O   0  0  0  0  0  0  0  0  0  0  0  0
    6.1959   29.9547    3.7876 C   0  0  0  0  0  0  0  0  0  0  0  0
    5.2085   29.0385    3.8790 F   0  0  0  0  0  0  0  0  0  0  0  0
    6.4996   30.1143    2.4809 F   0  0  0  0  0  0  0  0  0  0  0  0
    7.2958   29.4993    4.4234 F   0  0  0  0  0  0  0  0  0  0  0  0
 15 16  2  0
 16 17  1  0
 16  9  1  0
  9 10  2  0
 10 11  1  0
 11 12  2  0
 12  7  1  0
  7  1  1  0
  1  2  2  0
  2  3  1  0
  3  4  2  0
  4  5  1  0
  5 19  1  0
 19 21  1  0
 21 22  2  0
 22 23  1  0
 23 24  1  0
 23 25  2  0
 25 26  1  0
 26 27  2  0
 27 28  1  0
 28 29  1  0
 29 30  1  0
 29 31  1  0
 29 32  1  0
  5  6  2  0
 12 13  1  0
 13 14  2  0
 14  9  1  0
  6  1  1  0
 27 21  1  0
 17 18  1  0
  7  8  1  0
 19 20  1  0
M  END
> <minimizedAffinity>
-7.31985

> <CNNscore>
0.3392306268

> <CNNaffinity>
6.9053149223

> <CNN_VS>
2.3424942493

> <CNNaffinity_variance>
0.0458475612

$$$$



 32 34  0  0  0  0  0  0  0  0999 V2000
    7.6626   29.1589    3.8763 C   0  0  0  0  0  0  0  0  0  0  0  0
    7.5858   28.8414    2.5791 N   0  0  0  0  0  0  0  0  0  0  0  0
    6.4699   29.2002    1.9272 C   0  0  0  0  0  0  0  0  0  0  0  0
    5.4204   29.8483    2.5261 C   0  0  0  0  0  0  0  0  0  0  0  0
    5.5593   30.1205    3.8668 C   0  0  0  0  0  0  0  0  0  0  0  0
    6.6815   29.7983    4.5362 N   0  0  0  0  0  0  0  0  0  0  0  0
    8.7784   28.8479    4.6489 N   0  0  0  0  0  0  0  0  0  0  0  0
    9.6230   29.1434    4.2383 H   0  0  0  0  0  0  0  0  0  0  0  0
    9.3328   26.7893    8.3031 C   0  0  0  0  0  0  0  0  0  0  0  0
    9.3475   28.1857    8.2889 C   0  0  0  0  0  0  0  0  0  0  0  0
    9.1655   28.8834    7.0872 C   0  0  0  0  0  0  0  0  0  0  0  0
    8.9657   28.2092    5.8783 C   0  0  0  0  0  0  0  0  0  0  0  0
    8.9538   26.8041    5.9115 C   0  0  0  0  0  0  0  0  0  0  0  0
    9.1347   26.0972    7.1068 C   0  0  0  0  0  0  0  0  0  0  0  0
    9.8350   24.9235    9.7406 O   0  0  0  0  0  0  0  0  0  0  0  0
    9.5294   26.0928    9.5969 C   0  0  0  0  0  0  0  0  0  0  0  0
    9.3333   26.8966   10.6575 O   0  0  0  0  0  0  0  0  0  0  0  0
    9.0985   27.7944   10.5278 H   0  0  0  0  0  0  0  0  0  0  0  0
    4.5908   30.7886    4.6144 N   0  0  0  0  0  0  0  0  0  0  0  0
    3.8971   31.2040    4.0528 H   0  0  0  0  0  0  0  0  0  0  0  0
    4.3778   31.0056    5.9922 C   0  0  0  0  0  0  0  0  0  0  0  0
    4.7122   30.0636    6.9729 C   0  0  0  0  0  0  0  0  0  0  0  0
    4.4278   30.3072    8.3165 C   0  0  0  0  0  0  0  0  0  0  0  0
    4.9002   29.0233    9.6218 Br  0  0  0  0  0  0  0  0  0  0  0  0
    3.8049   31.4874    8.7058 C   0  0  0  0  0  0  0  0  0  0  0  0
    3.4653   32.4415    7.7452 C   0  0  0  0  0  0  0  0  0  0  0  0
    3.7428   32.2089    6.3931 C   0  0  0  0  0  0  0  0  0  0  0  0
    3.4599   33.0786    5.3685 O   0  0  0  0  0  0  0  0  0  0  0  0
    2.1012   33.2964    5.0348 C   0  0  0  0  0  0  0  0  0  0  0  0
    1.9030   34.5679    4.6265 F   0  0  0  0  0  0  0  0  0  0  0  0
    1.7692   32.4729    4.0166 F   0  0  0  0  0  0  0  0  0  0  0  0
    1.2898   33.0248    6.0785 F   0  0  0  0  0  0  0  0  0  0  0  0
 15 16  2  0
 16 17  1  0
 16  9  1  0
  9 10  2  0
 10 11  1  0
 11 12  2  0
 12  7  1  0
  7  1  1  0
  1  2  2  0
  2  3  1  0
  3  4  2  0
  4  5  1  0
  5 19  1  0
 19 21  1  0
 21 22  2  0
 22 23  1  0
 23 24  1  0
 23 25  2  0
 25 26  1  0
 26 27  2  0
 27 28  1  0
 28 29  1  0
 29 30  1  0
 29 31  1  0
 29 32  1  0
  5  6  2  0
 12 13  1  0
 13 14  2  0
 14  9  1  0
  6  1  1  0
 27 21  1  0
 17 18  1  0
  7  8  1  0
 19 20  1  0
M  END
> <minimizedAffinity>
-9.71314

> <CNNscore>
0.2031560838

> <CNNaffinity>
5.9851212502

> <CNN_VS>
1.2159137726

> <CNNaffinity_variance>
0.6558821797

$$$$
