


 24 26  0  0  0  0  0  0  0  0999 V2000
   57.2349   73.5274   21.9618 C   0  0  0  0  0  0  0  0  0  0  0  0
   57.7228   72.5015   22.9732 C   0  0  0  0  0  0  0  0  0  0  0  0
   59.1361   72.6468   23.1764 O   0  0  0  0  0  0  0  0  0  0  0  0
   57.4378   71.1687   22.2798 C   0  0  0  0  0  0  0  0  0  0  0  0
   57.5255   71.4228   20.8607 O   0  0  0  0  0  0  0  0  0  0  0  0
   57.6284   72.8493   20.6458 C   0  0  0  0  0  0  0  0  0  0  0  0
   59.5950   72.5670   22.3256 H   0  0  0  0  0  0  0  0  0  0  0  0
   56.7540   73.2306   19.5414 N   0  0  0  0  0  0  0  0  0  0  0  0
   57.0213   73.0996   18.1976 C   0  0  0  0  0  0  0  0  0  0  0  0
   55.9222   73.5506   17.4976 C   0  0  0  0  0  0  0  0  0  0  0  0
   54.9473   73.9651   18.4457 C   0  0  0  0  0  0  0  0  0  0  0  0
   53.6529   74.5017   18.4018 C   0  0  0  0  0  0  0  0  0  0  0  0
   52.9649   74.7558   17.2243 N   0  0  0  0  0  0  0  0  0  0  0  0
   53.0193   74.7723   19.5593 N   0  0  0  0  0  0  0  0  0  0  0  0
   53.6708   74.5285   20.7130 C   0  0  0  0  0  0  0  0  0  0  0  0
   54.9019   74.0191   20.8810 N   0  0  0  0  0  0  0  0  0  0  0  0
   55.4949   73.7574   19.7046 C   0  0  0  0  0  0  0  0  0  0  0  0
   53.3909   74.5724   16.3559 H   0  0  0  0  0  0  0  0  0  0  0  0
   52.0506   75.1195   17.2570 H   0  0  0  0  0  0  0  0  0  0  0  0
   58.9710   74.9917   21.2651 C   0  0  0  0  0  0  0  0  0  0  0  0
   57.8909   74.7829   22.1667 O   0  0  0  0  0  0  0  0  0  0  0  0
   56.0396   70.6432   22.6391 C   0  0  0  0  0  0  0  0  0  0  0  0
   55.8215   68.8319   22.4951 S   0  0  0  0  0  0  0  0  0  0  0  0
   56.7077   68.2860   23.9750 C   0  0  0  0  0  0  0  0  0  0  0  0
 20 21  1  0
  1 21  1  0
  1  2  1  0
  2  3  1  0
  2  4  1  0
  4 22  1  0
 22 23  1  0
 23 24  1  0
  4  5  1  0
  5  6  1  0
  6  8  1  0
  8  9  1  0
  9 10  2  0
 10 11  1  0
 11 12  2  0
 12 13  1  0
 12 14  1  0
 14 15  2  0
 15 16  1  0
 16 17  2  0
  6  1  1  0
 17  8  1  0
 17 11  1  0
  3  7  1  0
 13 18  1  0
 13 19  1  0
M  END
> <minimizedAffinity>
-7.00213

> <CNNscore>
0.9561344981

> <CNNaffinity>
6.8293147087

> <CNN_VS>
6.5297431946

> <CNNaffinity_variance>
0.2349727154

$$$$



 24 26  0  0  0  0  0  0  0  0999 V2000
   58.8185   65.3049   23.7970 C   0  0  0  0  0  0  0  0  0  0  0  0
   58.7125   66.3883   24.8594 C   0  0  0  0  0  0  0  0  0  0  0  0
   58.8902   65.8156   26.1633 O   0  0  0  0  0  0  0  0  0  0  0  0
   57.2736   66.8831   24.7073 C   0  0  0  0  0  0  0  0  0  0  0  0
   56.5076   65.7595   24.2205 O   0  0  0  0  0  0  0  0  0  0  0  0
   57.4163   64.6921   23.8647 C   0  0  0  0  0  0  0  0  0  0  0  0
   58.2399   65.1085   26.2973 H   0  0  0  0  0  0  0  0  0  0  0  0
   57.0003   64.1149   22.5906 N   0  0  0  0  0  0  0  0  0  0  0  0
   57.5226   64.3991   21.3492 C   0  0  0  0  0  0  0  0  0  0  0  0
   56.8688   63.6160   20.4214 C   0  0  0  0  0  0  0  0  0  0  0  0
   55.9194   62.8213   21.1201 C   0  0  0  0  0  0  0  0  0  0  0  0
   54.9672   61.8485   20.7847 C   0  0  0  0  0  0  0  0  0  0  0  0
   54.7513   61.3971   19.4909 N   0  0  0  0  0  0  0  0  0  0  0  0
   54.2261   61.2960   21.7645 N   0  0  0  0  0  0  0  0  0  0  0  0
   54.4246   61.7196   23.0279 C   0  0  0  0  0  0  0  0  0  0  0  0
   55.3006   62.6366   23.4694 N   0  0  0  0  0  0  0  0  0  0  0  0
   56.0229   63.1567   22.4635 C   0  0  0  0  0  0  0  0  0  0  0  0
   55.2714   61.7741   18.7448 H   0  0  0  0  0  0  0  0  0  0  0  0
   54.0781   60.6998   19.3187 H   0  0  0  0  0  0  0  0  0  0  0  0
   61.1433   64.9803   24.1624 C   0  0  0  0  0  0  0  0  0  0  0  0
   59.8557   64.3769   24.1309 O   0  0  0  0  0  0  0  0  0  0  0  0
   57.1900   68.0522   23.7142 C   0  0  0  0  0  0  0  0  0  0  0  0
   55.7881   69.2004   23.9705 S   0  0  0  0  0  0  0  0  0  0  0  0
   55.3798   69.5926   22.2520 C   0  0  0  0  0  0  0  0  0  0  0  0
 20 21  1  0
  1 21  1  0
  1  2  1  0
  2  3  1  0
  2  4  1  0
  4 22  1  0
 22 23  1  0
 23 24  1  0
  4  5  1  0
  5  6  1  0
  6  8  1  0
  8  9  1  0
  9 10  2  0
 10 11  1  0
 11 12  2  0
 12 13  1  0
 12 14  1  0
 14 15  2  0
 15 16  1  0
 16 17  2  0
  6  1  1  0
 17  8  1  0
 17 11  1  0
  3  7  1  0
 13 18  1  0
 13 19  1  0
M  END
> <minimizedAffinity>
-5.18829

> <CNNscore>
0.4848451018

> <CNNaffinity>
5.1204538345

> <CNN_VS>
2.4826269150

> <CNNaffinity_variance>
0.1391934007

$$$$



 24 26  0  0  0  0  0  0  0  0999 V2000
   59.7440   64.7189   24.1029 C   0  0  0  0  0  0  0  0  0  0  0  0
   58.6244   65.3753   24.8962 C   0  0  0  0  0  0  0  0  0  0  0  0
   58.4302   64.6806   26.1371 O   0  0  0  0  0  0  0  0  0  0  0  0
   57.4019   65.1768   23.9995 C   0  0  0  0  0  0  0  0  0  0  0  0
   57.6383   63.9625   23.2540 O   0  0  0  0  0  0  0  0  0  0  0  0
   59.0017   63.5342   23.4767 C   0  0  0  0  0  0  0  0  0  0  0  0
   58.2504   63.7443   25.9588 H   0  0  0  0  0  0  0  0  0  0  0  0
   59.5869   63.1215   22.2052 N   0  0  0  0  0  0  0  0  0  0  0  0
   60.7576   62.4198   22.0277 C   0  0  0  0  0  0  0  0  0  0  0  0
   60.9295   62.2110   20.6755 C   0  0  0  0  0  0  0  0  0  0  0  0
   59.8229   62.7991   20.0042 C   0  0  0  0  0  0  0  0  0  0  0  0
   59.3984   62.9364   18.6751 C   0  0  0  0  0  0  0  0  0  0  0  0
   60.0922   62.4232   17.5890 N   0  0  0  0  0  0  0  0  0  0  0  0
   58.2436   63.5822   18.4226 N   0  0  0  0  0  0  0  0  0  0  0  0
   57.5544   64.0842   19.4656 C   0  0  0  0  0  0  0  0  0  0  0  0
   57.8567   64.0157   20.7722 N   0  0  0  0  0  0  0  0  0  0  0  0
   59.0097   63.3590   20.9804 C   0  0  0  0  0  0  0  0  0  0  0  0
   60.9408   61.9440   17.7287 H   0  0  0  0  0  0  0  0  0  0  0  0
   59.7360   62.5382   16.6784 H   0  0  0  0  0  0  0  0  0  0  0  0
   61.8245   65.3083   25.0865 C   0  0  0  0  0  0  0  0  0  0  0  0
   60.8073   64.3205   24.9741 O   0  0  0  0  0  0  0  0  0  0  0  0
   57.2190   66.3618   23.0389 C   0  0  0  0  0  0  0  0  0  0  0  0
   56.8767   67.9727   23.8370 S   0  0  0  0  0  0  0  0  0  0  0  0
   55.6909   68.6657   22.6592 C   0  0  0  0  0  0  0  0  0  0  0  0
 20 21  1  0
  1 21  1  0
  1  2  1  0
  2  3  1  0
  2  4  1  0
  4 22  1  0
 22 23  1  0
 23 24  1  0
  4  5  1  0
  5  6  1  0
  6  8  1  0
  8  9  1  0
  9 10  2  0
 10 11  1  0
 11 12  2  0
 12 13  1  0
 12 14  1  0
 14 15  2  0
 15 16  1  0
 16 17  2  0
  6  1  1  0
 17  8  1  0
 17 11  1  0
  3  7  1  0
 13 18  1  0
 13 19  1  0
M  END
> <minimizedAffinity>
-4.33875

> <CNNscore>
0.4580879211

> <CNNaffinity>
4.8307003975

> <CNN_VS>
2.2128856182

> <CNNaffinity_variance>
0.0644328222

$$$$



 24 26  0  0  0  0  0  0  0  0999 V2000
   58.6691   63.8129   24.3819 C   0  0  0  0  0  0  0  0  0  0  0  0
   58.0181   64.4114   23.1444 C   0  0  0  0  0  0  0  0  0  0  0  0
   58.9000   64.2896   22.0187 O   0  0  0  0  0  0  0  0  0  0  0  0
   57.8592   65.8863   23.5155 C   0  0  0  0  0  0  0  0  0  0  0  0
   58.9305   66.1910   24.4351 O   0  0  0  0  0  0  0  0  0  0  0  0
   59.5899   64.9596   24.8104 C   0  0  0  0  0  0  0  0  0  0  0  0
   59.7482   64.7125   22.2252 H   0  0  0  0  0  0  0  0  0  0  0  0
   59.8344   64.9676   26.2491 N   0  0  0  0  0  0  0  0  0  0  0  0
   59.1099   64.3000   27.2103 C   0  0  0  0  0  0  0  0  0  0  0  0
   59.6922   64.5509   28.4348 C   0  0  0  0  0  0  0  0  0  0  0  0
   60.8146   65.3950   28.2139 C   0  0  0  0  0  0  0  0  0  0  0  0
   61.8022   65.9981   29.0053 C   0  0  0  0  0  0  0  0  0  0  0  0
   61.8867   65.8427   30.3812 N   0  0  0  0  0  0  0  0  0  0  0  0
   62.7417   66.7577   28.4096 N   0  0  0  0  0  0  0  0  0  0  0  0
   62.6776   66.9169   27.0734 C   0  0  0  0  0  0  0  0  0  0  0  0
   61.7871   66.3932   26.2154 N   0  0  0  0  0  0  0  0  0  0  0  0
   60.8739   65.6385   26.8482 C   0  0  0  0  0  0  0  0  0  0  0  0
   61.2203   65.2957   30.8567 H   0  0  0  0  0  0  0  0  0  0  0  0
   62.6130   66.2794   30.8823 H   0  0  0  0  0  0  0  0  0  0  0  0
   60.7878   62.7577   24.1785 C   0  0  0  0  0  0  0  0  0  0  0  0
   59.3788   62.6166   24.0446 O   0  0  0  0  0  0  0  0  0  0  0  0
   56.4991   66.1488   24.1799 C   0  0  0  0  0  0  0  0  0  0  0  0
   55.5263   67.5215   23.4597 S   0  0  0  0  0  0  0  0  0  0  0  0
   56.6747   68.8954   23.7184 C   0  0  0  0  0  0  0  0  0  0  0  0
 20 21  1  0
  1 21  1  0
  1  2  1  0
  2  3  1  0
  2  4  1  0
  4 22  1  0
 22 23  1  0
 23 24  1  0
  4  5  1  0
  5  6  1  0
  6  8  1  0
  8  9  1  0
  9 10  2  0
 10 11  1  0
 11 12  2  0
 12 13  1  0
 12 14  1  0
 14 15  2  0
 15 16  1  0
 16 17  2  0
  6  1  1  0
 17  8  1  0
 17 11  1  0
  3  7  1  0
 13 18  1  0
 13 19  1  0
M  END
> <minimizedAffinity>
-4.51110

> <CNNscore>
0.4333002865

> <CNNaffinity>
4.4141001701

> <CNN_VS>
1.9126309156

> <CNNaffinity_variance>
0.6716301441

$$$$



 24 26  0  0  0  0  0  0  0  0999 V2000
   57.2836   64.1103   23.2944 C   0  0  0  0  0  0  0  0  0  0  0  0
   56.1769   64.5391   22.3432 C   0  0  0  0  0  0  0  0  0  0  0  0
   56.4362   64.0283   21.0272 O   0  0  0  0  0  0  0  0  0  0  0  0
   56.2977   66.0634   22.3357 C   0  0  0  0  0  0  0  0  0  0  0  0
   57.6878   66.3615   22.5907 O   0  0  0  0  0  0  0  0  0  0  0  0
   58.3678   65.1406   22.9637 C   0  0  0  0  0  0  0  0  0  0  0  0
   57.3093   64.3286   20.7300 H   0  0  0  0  0  0  0  0  0  0  0  0
   59.2438   65.4092   24.0995 N   0  0  0  0  0  0  0  0  0  0  0  0
   59.0823   66.3934   25.0481 C   0  0  0  0  0  0  0  0  0  0  0  0
   60.1115   66.2814   25.9590 C   0  0  0  0  0  0  0  0  0  0  0  0
   60.9258   65.1874   25.5574 C   0  0  0  0  0  0  0  0  0  0  0  0
   62.0874   64.5600   26.0293 C   0  0  0  0  0  0  0  0  0  0  0  0
   62.7602   64.9503   27.1779 N   0  0  0  0  0  0  0  0  0  0  0  0
   62.5794   63.5045   25.3524 N   0  0  0  0  0  0  0  0  0  0  0  0
   61.9370   63.1090   24.2363 C   0  0  0  0  0  0  0  0  0  0  0  0
   60.8241   63.6256   23.6903 N   0  0  0  0  0  0  0  0  0  0  0  0
   60.3632   64.6696   24.3985 C   0  0  0  0  0  0  0  0  0  0  0  0
   62.4344   65.7169   27.7028 H   0  0  0  0  0  0  0  0  0  0  0  0
   63.5634   64.4606   27.4683 H   0  0  0  0  0  0  0  0  0  0  0  0
   56.9159   61.8058   23.7392 C   0  0  0  0  0  0  0  0  0  0  0  0
   57.6841   62.7637   23.0212 O   0  0  0  0  0  0  0  0  0  0  0  0
   55.4120   66.6964   23.4197 C   0  0  0  0  0  0  0  0  0  0  0  0
   55.8786   68.3934   23.9215 S   0  0  0  0  0  0  0  0  0  0  0  0
   55.4468   69.3003   22.4166 C   0  0  0  0  0  0  0  0  0  0  0  0
 20 21  1  0
  1 21  1  0
  1  2  1  0
  2  3  1  0
  2  4  1  0
  4 22  1  0
 22 23  1  0
 23 24  1  0
  4  5  1  0
  5  6  1  0
  6  8  1  0
  8  9  1  0
  9 10  2  0
 10 11  1  0
 11 12  2  0
 12 13  1  0
 12 14  1  0
 14 15  2  0
 15 16  1  0
 16 17  2  0
  6  1  1  0
 17  8  1  0
 17 11  1  0
  3  7  1  0
 13 18  1  0
 13 19  1  0
M  END
> <minimizedAffinity>
-4.75052

> <CNNscore>
0.4137729704

> <CNNaffinity>
4.3807315826

> <CNN_VS>
1.8126282692

> <CNNaffinity_variance>
0.9115219116

$$$$



 24 26  0  0  0  0  0  0  0  0999 V2000
   58.9772   65.0031   23.8500 C   0  0  0  0  0  0  0  0  0  0  0  0
   58.6872   66.1025   24.8603 C   0  0  0  0  0  0  0  0  0  0  0  0
   58.7834   65.5808   26.1940 O   0  0  0  0  0  0  0  0  0  0  0  0
   57.2355   66.4764   24.5584 C   0  0  0  0  0  0  0  0  0  0  0  0
   56.6083   65.2826   24.0410 O   0  0  0  0  0  0  0  0  0  0  0  0
   57.6263   64.2821   23.8079 C   0  0  0  0  0  0  0  0  0  0  0  0
   58.1796   64.8278   26.2910 H   0  0  0  0  0  0  0  0  0  0  0  0
   57.3795   63.6397   22.5211 N   0  0  0  0  0  0  0  0  0  0  0  0
   56.2842   62.8802   22.1776 C   0  0  0  0  0  0  0  0  0  0  0  0
   56.4306   62.4897   20.8632 C   0  0  0  0  0  0  0  0  0  0  0  0
   57.6536   63.0347   20.3850 C   0  0  0  0  0  0  0  0  0  0  0  0
   58.3686   63.0195   19.1792 C   0  0  0  0  0  0  0  0  0  0  0  0
   57.9311   62.3713   18.0334 N   0  0  0  0  0  0  0  0  0  0  0  0
   59.5380   63.6841   19.1059 N   0  0  0  0  0  0  0  0  0  0  0  0
   59.9768   64.3226   20.2080 C   0  0  0  0  0  0  0  0  0  0  0  0
   59.3846   64.4089   21.4101 N   0  0  0  0  0  0  0  0  0  0  0  0
   58.2204   63.7398   21.4383 C   0  0  0  0  0  0  0  0  0  0  0  0
   57.0817   61.8737   18.0432 H   0  0  0  0  0  0  0  0  0  0  0  0
   58.4702   62.4088   17.2105 H   0  0  0  0  0  0  0  0  0  0  0  0
   61.2894   64.8581   24.3756 C   0  0  0  0  0  0  0  0  0  0  0  0
   60.0462   64.1702   24.3104 O   0  0  0  0  0  0  0  0  0  0  0  0
   57.1572   67.6082   23.5224 C   0  0  0  0  0  0  0  0  0  0  0  0
   55.9273   68.9153   23.8803 S   0  0  0  0  0  0  0  0  0  0  0  0
   55.5167   69.4354   22.1967 C   0  0  0  0  0  0  0  0  0  0  0  0
 20 21  1  0
  1 21  1  0
  1  2  1  0
  2  3  1  0
  2  4  1  0
  4 22  1  0
 22 23  1  0
 23 24  1  0
  4  5  1  0
  5  6  1  0
  6  8  1  0
  8  9  1  0
  9 10  2  0
 10 11  1  0
 11 12  2  0
 12 13  1  0
 12 14  1  0
 14 15  2  0
 15 16  1  0
 16 17  2  0
  6  1  1  0
 17  8  1  0
 17 11  1  0
  3  7  1  0
 13 18  1  0
 13 19  1  0
M  END
> <minimizedAffinity>
-4.70477

> <CNNscore>
0.2829261124

> <CNNaffinity>
4.6501708031

> <CNN_VS>
1.3156547546

> <CNNaffinity_variance>
0.2869788408

$$$$



 24 26  0  0  0  0  0  0  0  0999 V2000
   57.0604   63.3787   23.5989 C   0  0  0  0  0  0  0  0  0  0  0  0
   56.0243   63.9277   22.6301 C   0  0  0  0  0  0  0  0  0  0  0  0
   55.4787   62.8612   21.8395 O   0  0  0  0  0  0  0  0  0  0  0  0
   56.8440   64.8609   21.7382 C   0  0  0  0  0  0  0  0  0  0  0  0
   58.1826   64.3193   21.7062 O   0  0  0  0  0  0  0  0  0  0  0  0
   58.2811   63.2560   22.6816 C   0  0  0  0  0  0  0  0  0  0  0  0
   56.1973   62.3982   21.3812 H   0  0  0  0  0  0  0  0  0  0  0  0
   59.5387   63.3902   23.4097 N   0  0  0  0  0  0  0  0  0  0  0  0
   60.6292   62.5544   23.3286 C   0  0  0  0  0  0  0  0  0  0  0  0
   61.6139   63.0560   24.1533 C   0  0  0  0  0  0  0  0  0  0  0  0
   61.1107   64.2423   24.7538 C   0  0  0  0  0  0  0  0  0  0  0  0
   61.5859   65.2023   25.6582 C   0  0  0  0  0  0  0  0  0  0  0  0
   62.8557   65.1718   26.2160 N   0  0  0  0  0  0  0  0  0  0  0  0
   60.7848   66.2299   25.9996 N   0  0  0  0  0  0  0  0  0  0  0  0
   59.5492   66.2779   25.4648 C   0  0  0  0  0  0  0  0  0  0  0  0
   58.9864   65.4246   24.5939 N   0  0  0  0  0  0  0  0  0  0  0  0
   59.8196   64.4206   24.2750 C   0  0  0  0  0  0  0  0  0  0  0  0
   63.4737   64.4384   25.9934 H   0  0  0  0  0  0  0  0  0  0  0  0
   63.1390   65.8835   26.8344 H   0  0  0  0  0  0  0  0  0  0  0  0
   57.3678   61.0232   23.6166 C   0  0  0  0  0  0  0  0  0  0  0  0
   56.6293   62.1232   24.1339 O   0  0  0  0  0  0  0  0  0  0  0  0
   56.8636   66.2908   22.2998 C   0  0  0  0  0  0  0  0  0  0  0  0
   55.5396   66.6796   23.5018 S   0  0  0  0  0  0  0  0  0  0  0  0
   56.1337   68.2704   24.1262 C   0  0  0  0  0  0  0  0  0  0  0  0
 20 21  1  0
  1 21  1  0
  1  2  1  0
  2  3  1  0
  2  4  1  0
  4 22  1  0
 22 23  1  0
 23 24  1  0
  4  5  1  0
  5  6  1  0
  6  8  1  0
  8  9  1  0
  9 10  2  0
 10 11  1  0
 11 12  2  0
 12 13  1  0
 12 14  1  0
 14 15  2  0
 15 16  1  0
 16 17  2  0
  6  1  1  0
 17  8  1  0
 17 11  1  0
  3  7  1  0
 13 18  1  0
 13 19  1  0
M  END
> <minimizedAffinity>
-4.14729

> <CNNscore>
0.2455392927

> <CNNaffinity>
4.1020774841

> <CNN_VS>
1.0072212219

> <CNNaffinity_variance>
0.6185706258

$$$$



 24 26  0  0  0  0  0  0  0  0999 V2000
   44.1226   79.3559   26.0231 C   0  0  0  0  0  0  0  0  0  0  0  0
   44.4010   80.2553   27.2177 C   0  0  0  0  0  0  0  0  0  0  0  0
   45.2557   81.3399   26.8263 O   0  0  0  0  0  0  0  0  0  0  0  0
   45.1501   79.3322   28.1794 C   0  0  0  0  0  0  0  0  0  0  0  0
   45.8464   78.3695   27.3580 O   0  0  0  0  0  0  0  0  0  0  0  0
   45.4005   78.5120   25.9896 C   0  0  0  0  0  0  0  0  0  0  0  0
   46.0712   80.9853   26.4388 H   0  0  0  0  0  0  0  0  0  0  0  0
   45.1766   77.1874   25.4194 N   0  0  0  0  0  0  0  0  0  0  0  0
   44.3894   76.1880   25.9450 C   0  0  0  0  0  0  0  0  0  0  0  0
   44.4285   75.1145   25.0804 C   0  0  0  0  0  0  0  0  0  0  0  0
   45.2625   75.4722   23.9860 C   0  0  0  0  0  0  0  0  0  0  0  0
   45.7046   74.8604   22.8046 C   0  0  0  0  0  0  0  0  0  0  0  0
   45.3339   73.5816   22.4152 N   0  0  0  0  0  0  0  0  0  0  0  0
   46.5190   75.5467   21.9799 N   0  0  0  0  0  0  0  0  0  0  0  0
   46.8866   76.7917   22.3402 C   0  0  0  0  0  0  0  0  0  0  0  0
   46.5303   77.4791   23.4373 N   0  0  0  0  0  0  0  0  0  0  0  0
   45.7141   76.7628   24.2277 C   0  0  0  0  0  0  0  0  0  0  0  0
   44.7399   73.0452   22.9885 H   0  0  0  0  0  0  0  0  0  0  0  0
   45.6650   73.2104   21.5656 H   0  0  0  0  0  0  0  0  0  0  0  0
   45.1561   80.4339   24.1757 C   0  0  0  0  0  0  0  0  0  0  0  0
   43.9337   80.1394   24.8404 O   0  0  0  0  0  0  0  0  0  0  0  0
   44.1798   78.6148   29.1302 C   0  0  0  0  0  0  0  0  0  0  0  0
   43.6565   79.5819   30.5931 S   0  0  0  0  0  0  0  0  0  0  0  0
   44.9638   80.8321   30.6324 C   0  0  0  0  0  0  0  0  0  0  0  0
 20 21  1  0
  1 21  1  0
  1  2  1  0
  2  3  1  0
  2  4  1  0
  4 22  1  0
 22 23  1  0
 23 24  1  0
  4  5  1  0
  5  6  1  0
  6  8  1  0
  8  9  1  0
  9 10  2  0
 10 11  1  0
 11 12  2  0
 12 13  1  0
 12 14  1  0
 14 15  2  0
 15 16  1  0
 16 17  2  0
  6  1  1  0
 17  8  1  0
 17 11  1  0
  3  7  1  0
 13 18  1  0
 13 19  1  0
M  END
> <minimizedAffinity>
-6.08457

> <CNNscore>
0.2362661064

> <CNNaffinity>
4.4485182762

> <CNN_VS>
1.0510340929

> <CNNaffinity_variance>
0.1578878611

$$$$



 24 26  0  0  0  0  0  0  0  0999 V2000
   44.8445   79.6911   24.6858 C   0  0  0  0  0  0  0  0  0  0  0  0
   45.3587   80.8182   25.5682 C   0  0  0  0  0  0  0  0  0  0  0  0
   46.4200   81.5177   24.9016 O   0  0  0  0  0  0  0  0  0  0  0  0
   45.9155   80.0790   26.7854 C   0  0  0  0  0  0  0  0  0  0  0  0
   46.3497   78.7857   26.3110 O   0  0  0  0  0  0  0  0  0  0  0  0
   45.8994   78.6116   24.9477 C   0  0  0  0  0  0  0  0  0  0  0  0
   47.1215   80.8910   24.6648 H   0  0  0  0  0  0  0  0  0  0  0  0
   45.3651   77.2629   24.7892 N   0  0  0  0  0  0  0  0  0  0  0  0
   44.4787   76.6256   25.6275 C   0  0  0  0  0  0  0  0  0  0  0  0
   44.2105   75.3807   25.0985 C   0  0  0  0  0  0  0  0  0  0  0  0
   44.9528   75.2554   23.8925 C   0  0  0  0  0  0  0  0  0  0  0  0
   45.1232   74.2773   22.9027 C   0  0  0  0  0  0  0  0  0  0  0  0
   44.4769   73.0499   22.9146 N   0  0  0  0  0  0  0  0  0  0  0  0
   45.9409   74.5360   21.8640 N   0  0  0  0  0  0  0  0  0  0  0  0
   46.5743   75.7246   21.8339 C   0  0  0  0  0  0  0  0  0  0  0  0
   46.4910   76.7337   22.7159 N   0  0  0  0  0  0  0  0  0  0  0  0
   45.6617   76.4382   23.7303 C   0  0  0  0  0  0  0  0  0  0  0  0
   43.8703   72.8202   23.6552 H   0  0  0  0  0  0  0  0  0  0  0  0
   44.6249   72.4086   22.1824 H   0  0  0  0  0  0  0  0  0  0  0  0
   45.7181   81.1518   23.0285 C   0  0  0  0  0  0  0  0  0  0  0  0
   44.7944   80.1097   23.3181 O   0  0  0  0  0  0  0  0  0  0  0  0
   44.8431   79.9124   27.8729 C   0  0  0  0  0  0  0  0  0  0  0  0
   44.4802   81.4145   28.8532 S   0  0  0  0  0  0  0  0  0  0  0  0
   44.8577   80.8085   30.5156 C   0  0  0  0  0  0  0  0  0  0  0  0
 20 21  1  0
  1 21  1  0
  1  2  1  0
  2  3  1  0
  2  4  1  0
  4 22  1  0
 22 23  1  0
 23 24  1  0
  4  5  1  0
  5  6  1  0
  6  8  1  0
  8  9  1  0
  9 10  2  0
 10 11  1  0
 11 12  2  0
 12 13  1  0
 12 14  1  0
 14 15  2  0
 15 16  1  0
 16 17  2  0
  6  1  1  0
 17  8  1  0
 17 11  1  0
  3  7  1  0
 13 18  1  0
 13 19  1  0
M  END
> <minimizedAffinity>
-6.75635

> <CNNscore>
0.2264446914

> <CNNaffinity>
3.9640674591

> <CNN_VS>
0.8976420164

> <CNNaffinity_variance>
0.5895507932

$$$$
