


 33 34  0  0  0  0  0  0  0  0999 V2000
   21.6955   34.3557    6.3194 C   0  0  0  0  0  0  0  0  0  0  0  0
   22.3238   33.0620    5.8310 C   0  0  0  0  0  0  0  0  0  0  0  0
   21.7876   31.9715    5.9937 O   0  0  0  0  0  0  0  0  0  0  0  0
   23.5148   33.2761    5.1702 N   0  0  0  0  0  0  0  0  0  0  0  0
   23.8028   34.2164    5.1253 H   0  0  0  0  0  0  0  0  0  0  0  0
   24.3891   32.3500    4.5451 C   0  0  0  0  0  0  0  0  0  0  0  0
   24.5174   32.5097    3.1535 C   0  0  0  0  0  0  0  0  0  0  0  0
   25.3417   31.6653    2.4028 C   0  0  0  0  0  0  0  0  0  0  0  0
   25.4485   31.8449    1.0484 O   0  0  0  0  0  0  0  0  0  0  0  0
   26.0627   30.6347    3.0098 C   0  0  0  0  0  0  0  0  0  0  0  0
   25.9406   30.4691    4.3877 C   0  0  0  0  0  0  0  0  0  0  0  0
   25.1166   31.3139    5.1481 C   0  0  0  0  0  0  0  0  0  0  0  0
   25.1134   31.0065    6.4784 O   0  0  0  0  0  0  0  0  0  0  0  0
   24.9705   32.5323    0.6278 H   0  0  0  0  0  0  0  0  0  0  0  0
   25.6323   30.2938    6.7958 H   0  0  0  0  0  0  0  0  0  0  0  0
   26.8389   29.8646    2.1860 O   0  0  0  0  0  0  0  0  0  0  0  0
   26.5992   28.4641    2.1882 C   0  0  0  0  0  0  0  0  0  0  0  0
   20.8488   35.0126    5.2288 C   0  0  0  0  0  0  0  0  0  0  0  0
   18.4582   34.1887    5.6593 C   0  0  0  0  0  0  0  0  0  0  0  0
   17.3628   33.3736    5.3111 C   0  0  0  0  0  0  0  0  0  0  0  0
   16.2045   33.3020    6.0386 O   0  0  0  0  0  0  0  0  0  0  0  0
   17.3944   32.5835    4.1674 C   0  0  0  0  0  0  0  0  0  0  0  0
   18.5263   32.5907    3.3670 C   0  0  0  0  0  0  0  0  0  0  0  0
   18.5026   31.7966    2.2521 O   0  0  0  0  0  0  0  0  0  0  0  0
   19.6379   33.3774    3.6982 C   0  0  0  0  0  0  0  0  0  0  0  0
   21.0043   33.3223    2.6301 Cl  0  0  0  0  0  0  0  0  0  0  0  0
   19.6307   34.1854    4.8561 C   0  0  0  0  0  0  0  0  0  0  0  0
   16.1114   33.8073    6.8222 H   0  0  0  0  0  0  0  0  0  0  0  0
   17.7433   31.2826    2.0591 H   0  0  0  0  0  0  0  0  0  0  0  0
   18.3512   35.1016    6.8295 C   0  0  0  0  0  0  0  0  0  0  0  0
   17.2993   35.4864    7.3101 O   0  0  0  0  0  0  0  0  0  0  0  0
   19.6014   36.4260    8.2928 C   0  0  0  0  0  0  0  0  0  0  0  0
   19.5965   35.4365    7.2588 O   0  0  0  0  0  0  0  0  0  0  0  0
 32 33  1  0
 33 30  1  0
 30 31  2  0
 30 19  1  0
 19 20  2  0
 20 21  1  0
 20 22  1  0
 22 23  2  0
 23 24  1  0
 23 25  1  0
 25 26  1  0
 25 27  2  0
 27 18  1  0
 18  1  1  0
  1  2  1  0
  2  3  2  0
  2  4  1  0
  4  6  1  0
  6  7  2  0
  7  8  1  0
  8  9  1  0
  8 10  2  0
 10 16  1  0
 16 17  1  0
 10 11  1  0
 11 12  2  0
 12 13  1  0
 27 19  1  0
 12  6  1  0
 21 28  1  0
 24 29  1  0
  4  5  1  0
  9 14  1  0
 13 15  1  0
M  END
> <minimizedAffinity>
-8.14103

> <CNNscore>
0.6776688099

> <CNNaffinity>
5.4431614876

> <CNN_VS>
3.6886608601

> <CNNaffinity_variance>
0.1516700089

$$$$



 33 34  0  0  0  0  0  0  0  0999 V2000
   21.3879   36.0004    3.5669 C   0  0  0  0  0  0  0  0  0  0  0  0
   20.7382   34.7731    2.9515 C   0  0  0  0  0  0  0  0  0  0  0  0
   21.1504   34.2644    1.9150 O   0  0  0  0  0  0  0  0  0  0  0  0
   19.6863   34.3033    3.7089 N   0  0  0  0  0  0  0  0  0  0  0  0
   19.4876   34.8291    4.5171 H   0  0  0  0  0  0  0  0  0  0  0  0
   18.8461   33.1788    3.5028 C   0  0  0  0  0  0  0  0  0  0  0  0
   19.1999   32.3737    2.4051 C   0  0  0  0  0  0  0  0  0  0  0  0
   18.4590   31.2337    2.0772 C   0  0  0  0  0  0  0  0  0  0  0  0
   18.8276   30.4670    1.0028 O   0  0  0  0  0  0  0  0  0  0  0  0
   17.3426   30.8585    2.8277 C   0  0  0  0  0  0  0  0  0  0  0  0
   16.9848   31.6509    3.9163 C   0  0  0  0  0  0  0  0  0  0  0  0
   17.7246   32.7957    4.2525 C   0  0  0  0  0  0  0  0  0  0  0  0
   17.2315   33.4532    5.3427 O   0  0  0  0  0  0  0  0  0  0  0  0
   19.5745   30.7068    0.4903 H   0  0  0  0  0  0  0  0  0  0  0  0
   16.4737   33.1245    5.7850 H   0  0  0  0  0  0  0  0  0  0  0  0
   16.6863   29.7273    2.4228 O   0  0  0  0  0  0  0  0  0  0  0  0
   15.2732   29.7073    2.5692 C   0  0  0  0  0  0  0  0  0  0  0  0
   22.7610   35.6714    4.1535 C   0  0  0  0  0  0  0  0  0  0  0  0
   22.1121   34.5722    6.3782 C   0  0  0  0  0  0  0  0  0  0  0  0
   22.1362   33.4653    7.2500 C   0  0  0  0  0  0  0  0  0  0  0  0
   21.5887   33.4720    8.5055 O   0  0  0  0  0  0  0  0  0  0  0  0
   22.7235   32.2651    6.8656 C   0  0  0  0  0  0  0  0  0  0  0  0
   23.3037   32.1631    5.6107 C   0  0  0  0  0  0  0  0  0  0  0  0
   23.8650   30.9582    5.2830 O   0  0  0  0  0  0  0  0  0  0  0  0
   23.3110   33.2529    4.7296 C   0  0  0  0  0  0  0  0  0  0  0  0
   24.0568   33.0242    3.1796 Cl  0  0  0  0  0  0  0  0  0  0  0  0
   22.7239   34.4830    5.0985 C   0  0  0  0  0  0  0  0  0  0  0  0
   21.1754   34.2468    8.8322 H   0  0  0  0  0  0  0  0  0  0  0  0
   23.8432   30.2492    5.8952 H   0  0  0  0  0  0  0  0  0  0  0  0
   21.3831   35.8061    6.7785 C   0  0  0  0  0  0  0  0  0  0  0  0
   21.9207   36.8332    7.1551 O   0  0  0  0  0  0  0  0  0  0  0  0
   19.3060   35.9674    7.8358 C   0  0  0  0  0  0  0  0  0  0  0  0
   20.0446   35.5987    6.6667 O   0  0  0  0  0  0  0  0  0  0  0  0
 32 33  1  0
 33 30  1  0
 30 31  2  0
 30 19  1  0
 19 20  2  0
 20 21  1  0
 20 22  1  0
 22 23  2  0
 23 24  1  0
 23 25  1  0
 25 26  1  0
 25 27  2  0
 27 18  1  0
 18  1  1  0
  1  2  1  0
  2  3  2  0
  2  4  1  0
  4  6  1  0
  6  7  2  0
  7  8  1  0
  8  9  1  0
  8 10  2  0
 10 16  1  0
 16 17  1  0
 10 11  1  0
 11 12  2  0
 12 13  1  0
 27 19  1  0
 12  6  1  0
 21 28  1  0
 24 29  1  0
  4  5  1  0
  9 14  1  0
 13 15  1  0
M  END
> <minimizedAffinity>
-7.30852

> <CNNscore>
0.6288608909

> <CNNaffinity>
5.4632072449

> <CNN_VS>
3.4355974197

> <CNNaffinity_variance>
0.4169226587

$$$$



 33 34  0  0  0  0  0  0  0  0999 V2000
   21.9533   33.9023    6.0354 C   0  0  0  0  0  0  0  0  0  0  0  0
   23.3478   34.5036    6.0081 C   0  0  0  0  0  0  0  0  0  0  0  0
   23.6653   35.4532    6.7154 O   0  0  0  0  0  0  0  0  0  0  0  0
   24.1876   33.8368    5.1414 N   0  0  0  0  0  0  0  0  0  0  0  0
   23.7726   33.0913    4.6503 H   0  0  0  0  0  0  0  0  0  0  0  0
   25.5578   34.0597    4.8482 C   0  0  0  0  0  0  0  0  0  0  0  0
   26.4359   33.0939    5.3723 C   0  0  0  0  0  0  0  0  0  0  0  0
   27.8163   33.1864    5.1678 C   0  0  0  0  0  0  0  0  0  0  0  0
   28.6481   32.2302    5.6891 O   0  0  0  0  0  0  0  0  0  0  0  0
   28.3683   34.2417    4.4384 C   0  0  0  0  0  0  0  0  0  0  0  0
   27.5056   35.2032    3.9165 C   0  0  0  0  0  0  0  0  0  0  0  0
   26.1188   35.1160    4.1161 C   0  0  0  0  0  0  0  0  0  0  0  0
   25.4272   36.1423    3.5394 O   0  0  0  0  0  0  0  0  0  0  0  0
   28.2916   31.5166    6.1806 H   0  0  0  0  0  0  0  0  0  0  0  0
   25.8857   36.8086    3.0663 H   0  0  0  0  0  0  0  0  0  0  0  0
   29.7300   34.2403    4.2971 O   0  0  0  0  0  0  0  0  0  0  0  0
   30.2894   35.1656    3.3753 C   0  0  0  0  0  0  0  0  0  0  0  0
   20.9299   34.8339    5.3854 C   0  0  0  0  0  0  0  0  0  0  0  0
   18.4675   34.2041    5.7302 C   0  0  0  0  0  0  0  0  0  0  0  0
   17.3223   33.4817    5.3400 C   0  0  0  0  0  0  0  0  0  0  0  0
   16.1381   33.5008    6.0280 O   0  0  0  0  0  0  0  0  0  0  0  0
   17.3287   32.6966    4.1926 C   0  0  0  0  0  0  0  0  0  0  0  0
   18.4838   32.6156    3.4304 C   0  0  0  0  0  0  0  0  0  0  0  0
   18.4339   31.8308    2.3098 O   0  0  0  0  0  0  0  0  0  0  0  0
   19.6435   33.3085    3.8039 C   0  0  0  0  0  0  0  0  0  0  0  0
   21.0363   33.1477    2.7815 Cl  0  0  0  0  0  0  0  0  0  0  0  0
   19.6624   34.1094    4.9666 C   0  0  0  0  0  0  0  0  0  0  0  0
   16.0597   34.0086    6.8116 H   0  0  0  0  0  0  0  0  0  0  0  0
   17.6426   31.3806    2.0880 H   0  0  0  0  0  0  0  0  0  0  0  0
   18.3951   35.1176    6.9026 C   0  0  0  0  0  0  0  0  0  0  0  0
   17.4337   35.2105    7.6461 O   0  0  0  0  0  0  0  0  0  0  0  0
   19.7055   36.5084    8.2467 C   0  0  0  0  0  0  0  0  0  0  0  0
   19.5518   35.8247    6.9989 O   0  0  0  0  0  0  0  0  0  0  0  0
 32 33  1  0
 33 30  1  0
 30 31  2  0
 30 19  1  0
 19 20  2  0
 20 21  1  0
 20 22  1  0
 22 23  2  0
 23 24  1  0
 23 25  1  0
 25 26  1  0
 25 27  2  0
 27 18  1  0
 18  1  1  0
  1  2  1  0
  2  3  2  0
  2  4  1  0
  4  6  1  0
  6  7  2  0
  7  8  1  0
  8  9  1  0
  8 10  2  0
 10 16  1  0
 16 17  1  0
 10 11  1  0
 11 12  2  0
 12 13  1  0
 27 19  1  0
 12  6  1  0
 21 28  1  0
 24 29  1  0
  4  5  1  0
  9 14  1  0
 13 15  1  0
M  END
> <minimizedAffinity>
-6.39852

> <CNNscore>
0.6267016530

> <CNNaffinity>
5.3689117432

> <CNN_VS>
3.3647058010

> <CNNaffinity_variance>
0.2375288457

$$$$



 33 34  0  0  0  0  0  0  0  0999 V2000
   22.3289   34.9601    2.4760 C   0  0  0  0  0  0  0  0  0  0  0  0
   23.6089   34.1513    2.3554 C   0  0  0  0  0  0  0  0  0  0  0  0
   24.5403   34.5024    1.6396 O   0  0  0  0  0  0  0  0  0  0  0  0
   23.5974   33.0316    3.1598 N   0  0  0  0  0  0  0  0  0  0  0  0
   22.7695   32.8977    3.6754 H   0  0  0  0  0  0  0  0  0  0  0  0
   24.5950   32.0427    3.3590 C   0  0  0  0  0  0  0  0  0  0  0  0
   24.8135   31.6902    4.7031 C   0  0  0  0  0  0  0  0  0  0  0  0
   25.7706   30.7319    5.0519 C   0  0  0  0  0  0  0  0  0  0  0  0
   25.9613   30.4072    6.3695 O   0  0  0  0  0  0  0  0  0  0  0  0
   26.5422   30.0952    4.0774 C   0  0  0  0  0  0  0  0  0  0  0  0
   26.3328   30.4391    2.7436 C   0  0  0  0  0  0  0  0  0  0  0  0
   25.3726   31.3987    2.3858 C   0  0  0  0  0  0  0  0  0  0  0  0
   25.3038   31.6140    1.0393 O   0  0  0  0  0  0  0  0  0  0  0  0
   25.4507   30.8265    7.0340 H   0  0  0  0  0  0  0  0  0  0  0  0
   25.8639   31.1367    0.4593 H   0  0  0  0  0  0  0  0  0  0  0  0
   27.4515   29.1742    4.5235 O   0  0  0  0  0  0  0  0  0  0  0  0
   27.1065   27.8023    4.3912 C   0  0  0  0  0  0  0  0  0  0  0  0
   21.0931   34.0869    2.2572 C   0  0  0  0  0  0  0  0  0  0  0  0
   19.0481   33.1951    3.5228 C   0  0  0  0  0  0  0  0  0  0  0  0
   18.1878   33.2294    4.6383 C   0  0  0  0  0  0  0  0  0  0  0  0
   17.0726   32.4444    4.7651 O   0  0  0  0  0  0  0  0  0  0  0  0
   18.4400   34.0788    5.7098 C   0  0  0  0  0  0  0  0  0  0  0  0
   19.5475   34.9116    5.6714 C   0  0  0  0  0  0  0  0  0  0  0  0
   19.7496   35.7252    6.7537 O   0  0  0  0  0  0  0  0  0  0  0  0
   20.4105   34.9124    4.5671 C   0  0  0  0  0  0  0  0  0  0  0  0
   21.7724   35.9866    4.6161 Cl  0  0  0  0  0  0  0  0  0  0  0  0
   20.1736   34.0611    3.4657 C   0  0  0  0  0  0  0  0  0  0  0  0
   16.8400   31.8471    4.0817 H   0  0  0  0  0  0  0  0  0  0  0  0
   19.1536   35.7004    7.4763 H   0  0  0  0  0  0  0  0  0  0  0  0
   18.8098   32.2001    2.4423 C   0  0  0  0  0  0  0  0  0  0  0  0
   19.4638   32.1261    1.4164 O   0  0  0  0  0  0  0  0  0  0  0  0
   17.6933   30.1889    2.0336 C   0  0  0  0  0  0  0  0  0  0  0  0
   17.7562   31.4098    2.7778 O   0  0  0  0  0  0  0  0  0  0  0  0
 32 33  1  0
 33 30  1  0
 30 31  2  0
 30 19  1  0
 19 20  2  0
 20 21  1  0
 20 22  1  0
 22 23  2  0
 23 24  1  0
 23 25  1  0
 25 26  1  0
 25 27  2  0
 27 18  1  0
 18  1  1  0
  1  2  1  0
  2  3  2  0
  2  4  1  0
  4  6  1  0
  6  7  2  0
  7  8  1  0
  8  9  1  0
  8 10  2  0
 10 16  1  0
 16 17  1  0
 10 11  1  0
 11 12  2  0
 12 13  1  0
 27 19  1  0
 12  6  1  0
 21 28  1  0
 24 29  1  0
  4  5  1  0
  9 14  1  0
 13 15  1  0
M  END
> <minimizedAffinity>
-7.89503

> <CNNscore>
0.6151749492

> <CNNaffinity>
5.6564373970

> <CNN_VS>
3.4796986580

> <CNNaffinity_variance>
0.1466113478

$$$$



 33 34  0  0  0  0  0  0  0  0999 V2000
   22.3390   33.9542    5.8711 C   0  0  0  0  0  0  0  0  0  0  0  0
   23.5941   34.6710    6.3380 C   0  0  0  0  0  0  0  0  0  0  0  0
   24.5812   34.0666    6.7422 O   0  0  0  0  0  0  0  0  0  0  0  0
   23.4910   36.0402    6.2134 N   0  0  0  0  0  0  0  0  0  0  0  0
   22.6276   36.3631    5.8678 H   0  0  0  0  0  0  0  0  0  0  0  0
   24.4376   37.0555    6.5067 C   0  0  0  0  0  0  0  0  0  0  0  0
   25.3722   37.3011    5.4845 C   0  0  0  0  0  0  0  0  0  0  0  0
   26.3685   38.2710    5.6348 C   0  0  0  0  0  0  0  0  0  0  0  0
   27.2651   38.4899    4.6217 O   0  0  0  0  0  0  0  0  0  0  0  0
   26.4695   39.0260    6.8054 C   0  0  0  0  0  0  0  0  0  0  0  0
   25.5483   38.7885    7.8232 C   0  0  0  0  0  0  0  0  0  0  0  0
   24.5443   37.8178    7.6788 C   0  0  0  0  0  0  0  0  0  0  0  0
   23.7337   37.7163    8.7727 O   0  0  0  0  0  0  0  0  0  0  0  0
   27.2092   37.9907    3.8307 H   0  0  0  0  0  0  0  0  0  0  0  0
   23.8783   38.2684    9.5159 H   0  0  0  0  0  0  0  0  0  0  0  0
   27.4802   39.9481    6.8524 O   0  0  0  0  0  0  0  0  0  0  0  0
   27.3303   41.0322    7.7584 C   0  0  0  0  0  0  0  0  0  0  0  0
   21.3863   34.9078    5.1494 C   0  0  0  0  0  0  0  0  0  0  0  0
   18.9226   34.4065    5.6575 C   0  0  0  0  0  0  0  0  0  0  0  0
   17.7152   33.7534    5.3394 C   0  0  0  0  0  0  0  0  0  0  0  0
   16.5842   33.8254    6.1085 O   0  0  0  0  0  0  0  0  0  0  0  0
   17.5992   32.9876    4.1847 C   0  0  0  0  0  0  0  0  0  0  0  0
   18.6928   32.8566    3.3428 C   0  0  0  0  0  0  0  0  0  0  0  0
   18.5225   32.0938    2.2189 O   0  0  0  0  0  0  0  0  0  0  0  0
   19.9118   33.4797    3.6429 C   0  0  0  0  0  0  0  0  0  0  0  0
   21.2198   33.2603    2.5240 Cl  0  0  0  0  0  0  0  0  0  0  0  0
   20.0550   34.2597    4.8112 C   0  0  0  0  0  0  0  0  0  0  0  0
   16.5881   34.3241    6.9018 H   0  0  0  0  0  0  0  0  0  0  0  0
   17.6942   31.6906    2.0474 H   0  0  0  0  0  0  0  0  0  0  0  0
   18.9816   35.3037    6.8432 C   0  0  0  0  0  0  0  0  0  0  0  0
   18.1586   35.3134    7.7422 O   0  0  0  0  0  0  0  0  0  0  0  0
   20.3987   36.7768    7.9746 C   0  0  0  0  0  0  0  0  0  0  0  0
   20.0782   36.1017    6.7541 O   0  0  0  0  0  0  0  0  0  0  0  0
 32 33  1  0
 33 30  1  0
 30 31  2  0
 30 19  1  0
 19 20  2  0
 20 21  1  0
 20 22  1  0
 22 23  2  0
 23 24  1  0
 23 25  1  0
 25 26  1  0
 25 27  2  0
 27 18  1  0
 18  1  1  0
  1  2  1  0
  2  3  2  0
  2  4  1  0
  4  6  1  0
  6  7  2  0
  7  8  1  0
  8  9  1  0
  8 10  2  0
 10 16  1  0
 16 17  1  0
 10 11  1  0
 11 12  2  0
 12 13  1  0
 27 19  1  0
 12  6  1  0
 21 28  1  0
 24 29  1  0
  4  5  1  0
  9 14  1  0
 13 15  1  0
M  END
> <minimizedAffinity>
-6.40867

> <CNNscore>
0.6062278152

> <CNNaffinity>
5.1742944717

> <CNN_VS>
3.1368012428

> <CNNaffinity_variance>
0.0943552628

$$$$



 33 34  0  0  0  0  0  0  0  0999 V2000
   21.5921   34.7859    6.0354 C   0  0  0  0  0  0  0  0  0  0  0  0
   22.5078   35.8877    6.5401 C   0  0  0  0  0  0  0  0  0  0  0  0
   22.1178   36.7652    7.3024 O   0  0  0  0  0  0  0  0  0  0  0  0
   23.7978   35.7499    6.0736 N   0  0  0  0  0  0  0  0  0  0  0  0
   23.9431   34.9854    5.4705 H   0  0  0  0  0  0  0  0  0  0  0  0
   24.9482   36.5401    6.3287 C   0  0  0  0  0  0  0  0  0  0  0  0
   25.2075   37.5300    5.3637 C   0  0  0  0  0  0  0  0  0  0  0  0
   26.3109   38.3813    5.4810 C   0  0  0  0  0  0  0  0  0  0  0  0
   26.5383   39.3378    4.5263 O   0  0  0  0  0  0  0  0  0  0  0  0
   27.1926   38.2751    6.5588 C   0  0  0  0  0  0  0  0  0  0  0  0
   26.9435   37.2966    7.5188 C   0  0  0  0  0  0  0  0  0  0  0  0
   25.8370   36.4397    7.4088 C   0  0  0  0  0  0  0  0  0  0  0  0
   25.7488   35.5415    8.4333 O   0  0  0  0  0  0  0  0  0  0  0  0
   25.9550   39.4205    3.7976 H   0  0  0  0  0  0  0  0  0  0  0  0
   26.3899   35.5459    9.1166 H   0  0  0  0  0  0  0  0  0  0  0  0
   28.2412   39.1549    6.5794 O   0  0  0  0  0  0  0  0  0  0  0  0
   28.2274   40.1603    7.5832 C   0  0  0  0  0  0  0  0  0  0  0  0
   20.6656   35.2918    4.9294 C   0  0  0  0  0  0  0  0  0  0  0  0
   19.6834   33.4774    3.4056 C   0  0  0  0  0  0  0  0  0  0  0  0
   18.6402   32.5904    3.0733 C   0  0  0  0  0  0  0  0  0  0  0  0
   18.6465   31.7881    1.9632 O   0  0  0  0  0  0  0  0  0  0  0  0
   17.5193   32.4681    3.8869 C   0  0  0  0  0  0  0  0  0  0  0  0
   17.4241   33.2405    5.0341 C   0  0  0  0  0  0  0  0  0  0  0  0
   16.3009   33.0782    5.7997 O   0  0  0  0  0  0  0  0  0  0  0  0
   18.4376   34.1445    5.3801 C   0  0  0  0  0  0  0  0  0  0  0  0
   18.2286   35.0618    6.8381 Cl  0  0  0  0  0  0  0  0  0  0  0  0
   19.5838   34.2888    4.5681 C   0  0  0  0  0  0  0  0  0  0  0  0
   19.3701   31.8166    1.3687 H   0  0  0  0  0  0  0  0  0  0  0  0
   15.6416   32.4650    5.5402 H   0  0  0  0  0  0  0  0  0  0  0  0
   20.9156   33.5066    2.5718 C   0  0  0  0  0  0  0  0  0  0  0  0
   21.0048   34.0657    1.4924 O   0  0  0  0  0  0  0  0  0  0  0  0
   23.2155   33.3181    2.9366 C   0  0  0  0  0  0  0  0  0  0  0  0
   21.9024   32.8115    3.1963 O   0  0  0  0  0  0  0  0  0  0  0  0
 32 33  1  0
 33 30  1  0
 30 31  2  0
 30 19  1  0
 19 20  2  0
 20 21  1  0
 20 22  1  0
 22 23  2  0
 23 24  1  0
 23 25  1  0
 25 26  1  0
 25 27  2  0
 27 18  1  0
 18  1  1  0
  1  2  1  0
  2  3  2  0
  2  4  1  0
  4  6  1  0
  6  7  2  0
  7  8  1  0
  8  9  1  0
  8 10  2  0
 10 16  1  0
 16 17  1  0
 10 11  1  0
 11 12  2  0
 12 13  1  0
 27 19  1  0
 12  6  1  0
 21 28  1  0
 24 29  1  0
  4  5  1  0
  9 14  1  0
 13 15  1  0
M  END
> <minimizedAffinity>
-6.68578

> <CNNscore>
0.5759117603

> <CNNaffinity>
5.0716323853

> <CNN_VS>
2.9208128452

> <CNNaffinity_variance>
0.3175357878

$$$$



 33 34  0  0  0  0  0  0  0  0999 V2000
   20.0827   34.0043    7.0087 C   0  0  0  0  0  0  0  0  0  0  0  0
   21.5928   34.0036    7.1726 C   0  0  0  0  0  0  0  0  0  0  0  0
   22.1859   34.8883    7.7797 O   0  0  0  0  0  0  0  0  0  0  0  0
   22.1800   32.8947    6.6014 N   0  0  0  0  0  0  0  0  0  0  0  0
   21.5570   32.2777    6.1537 H   0  0  0  0  0  0  0  0  0  0  0  0
   23.5438   32.5058    6.5594 C   0  0  0  0  0  0  0  0  0  0  0  0
   23.7842   31.2717    5.9287 C   0  0  0  0  0  0  0  0  0  0  0  0
   25.0802   30.7580    5.8175 C   0  0  0  0  0  0  0  0  0  0  0  0
   25.2851   29.5536    5.1966 O   0  0  0  0  0  0  0  0  0  0  0  0
   26.1779   31.4523    6.3308 C   0  0  0  0  0  0  0  0  0  0  0  0
   25.9484   32.6751    6.9579 C   0  0  0  0  0  0  0  0  0  0  0  0
   24.6505   33.1980    7.0717 C   0  0  0  0  0  0  0  0  0  0  0  0
   24.6103   34.4008    7.7164 O   0  0  0  0  0  0  0  0  0  0  0  0
   24.5579   29.0768    4.8475 H   0  0  0  0  0  0  0  0  0  0  0  0
   25.4027   34.7925    8.0271 H   0  0  0  0  0  0  0  0  0  0  0  0
   27.4030   30.8626    6.1711 O   0  0  0  0  0  0  0  0  0  0  0  0
   28.0376   30.3550    7.3365 C   0  0  0  0  0  0  0  0  0  0  0  0
   19.6572   34.7636    5.7516 C   0  0  0  0  0  0  0  0  0  0  0  0
   19.9751   33.5306    3.5251 C   0  0  0  0  0  0  0  0  0  0  0  0
   19.4702   32.7094    2.4973 C   0  0  0  0  0  0  0  0  0  0  0  0
   20.1760   32.3766    1.3716 O   0  0  0  0  0  0  0  0  0  0  0  0
   18.1935   32.1648    2.5793 C   0  0  0  0  0  0  0  0  0  0  0  0
   17.4039   32.4459    3.6835 C   0  0  0  0  0  0  0  0  0  0  0  0
   16.1570   31.8817    3.7141 O   0  0  0  0  0  0  0  0  0  0  0  0
   17.8726   33.2742    4.7123 C   0  0  0  0  0  0  0  0  0  0  0  0
   16.8115   33.5614    6.0549 Cl  0  0  0  0  0  0  0  0  0  0  0  0
   19.1642   33.8414    4.6501 C   0  0  0  0  0  0  0  0  0  0  0  0
   21.0440   32.7070    1.2481 H   0  0  0  0  0  0  0  0  0  0  0  0
   15.8739   31.3323    3.0098 H   0  0  0  0  0  0  0  0  0  0  0  0
   21.3822   34.0099    3.4573 C   0  0  0  0  0  0  0  0  0  0  0  0
   21.7141   35.1821    3.4961 O   0  0  0  0  0  0  0  0  0  0  0  0
   23.4562   33.2571    2.6890 C   0  0  0  0  0  0  0  0  0  0  0  0
   22.2187   32.9455    3.3370 O   0  0  0  0  0  0  0  0  0  0  0  0
 32 33  1  0
 33 30  1  0
 30 31  2  0
 30 19  1  0
 19 20  2  0
 20 21  1  0
 20 22  1  0
 22 23  2  0
 23 24  1  0
 23 25  1  0
 25 26  1  0
 25 27  2  0
 27 18  1  0
 18  1  1  0
  1  2  1  0
  2  3  2  0
  2  4  1  0
  4  6  1  0
  6  7  2  0
  7  8  1  0
  8  9  1  0
  8 10  2  0
 10 16  1  0
 16 17  1  0
 10 11  1  0
 11 12  2  0
 12 13  1  0
 27 19  1  0
 12  6  1  0
 21 28  1  0
 24 29  1  0
  4  5  1  0
  9 14  1  0
 13 15  1  0
M  END
> <minimizedAffinity>
-6.76890

> <CNNscore>
0.5683866739

> <CNNaffinity>
5.3132476807

> <CNN_VS>
3.0199792385

> <CNNaffinity_variance>
0.3506364524

$$$$



 33 34  0  0  0  0  0  0  0  0999 V2000
   21.4163   35.9331    3.5631 C   0  0  0  0  0  0  0  0  0  0  0  0
   20.6878   34.7662    2.9192 C   0  0  0  0  0  0  0  0  0  0  0  0
   20.9874   34.3392    1.8097 O   0  0  0  0  0  0  0  0  0  0  0  0
   19.7068   34.2469    3.7371 N   0  0  0  0  0  0  0  0  0  0  0  0
   19.5976   34.7073    4.6004 H   0  0  0  0  0  0  0  0  0  0  0  0
   18.8306   33.1511    3.5262 C   0  0  0  0  0  0  0  0  0  0  0  0
   19.1769   32.3210    2.4448 C   0  0  0  0  0  0  0  0  0  0  0  0
   18.4018   31.2047    2.1143 C   0  0  0  0  0  0  0  0  0  0  0  0
   18.7637   30.4127    1.0561 O   0  0  0  0  0  0  0  0  0  0  0  0
   17.2576   30.8788    2.8459 C   0  0  0  0  0  0  0  0  0  0  0  0
   16.9071   31.6964    3.9181 C   0  0  0  0  0  0  0  0  0  0  0  0
   17.6812   32.8175    4.2569 C   0  0  0  0  0  0  0  0  0  0  0  0
   17.1905   33.5051    5.3295 O   0  0  0  0  0  0  0  0  0  0  0  0
   19.5289   30.6194    0.5564 H   0  0  0  0  0  0  0  0  0  0  0  0
   16.4125   33.2091    5.7598 H   0  0  0  0  0  0  0  0  0  0  0  0
   16.5689   29.7675    2.4401 O   0  0  0  0  0  0  0  0  0  0  0  0
   15.1550   29.7917    2.5781 C   0  0  0  0  0  0  0  0  0  0  0  0
   22.7698   35.5031    4.1296 C   0  0  0  0  0  0  0  0  0  0  0  0
   23.1637   33.1079    4.9583 C   0  0  0  0  0  0  0  0  0  0  0  0
   22.9897   32.1054    5.9331 C   0  0  0  0  0  0  0  0  0  0  0  0
   23.4400   30.8196    5.7928 O   0  0  0  0  0  0  0  0  0  0  0  0
   22.3430   32.3796    7.1330 C   0  0  0  0  0  0  0  0  0  0  0  0
   21.8526   33.6552    7.3653 C   0  0  0  0  0  0  0  0  0  0  0  0
   21.2272   33.8706    8.5639 O   0  0  0  0  0  0  0  0  0  0  0  0
   21.9949   34.6675    6.4065 C   0  0  0  0  0  0  0  0  0  0  0  0
   21.3525   36.2324    6.7931 Cl  0  0  0  0  0  0  0  0  0  0  0  0
   22.6449   34.4125    5.1792 C   0  0  0  0  0  0  0  0  0  0  0  0
   23.8856   30.5620    5.0098 H   0  0  0  0  0  0  0  0  0  0  0  0
   21.1486   33.1721    9.1835 H   0  0  0  0  0  0  0  0  0  0  0  0
   23.9527   32.8104    3.7321 C   0  0  0  0  0  0  0  0  0  0  0  0
   23.4674   32.6005    2.6339 O   0  0  0  0  0  0  0  0  0  0  0  0
   25.9991   31.7247    3.4300 C   0  0  0  0  0  0  0  0  0  0  0  0
   25.2773   32.8016    4.0361 O   0  0  0  0  0  0  0  0  0  0  0  0
 32 33  1  0
 33 30  1  0
 30 31  2  0
 30 19  1  0
 19 20  2  0
 20 21  1  0
 20 22  1  0
 22 23  2  0
 23 24  1  0
 23 25  1  0
 25 26  1  0
 25 27  2  0
 27 18  1  0
 18  1  1  0
  1  2  1  0
  2  3  2  0
  2  4  1  0
  4  6  1  0
  6  7  2  0
  7  8  1  0
  8  9  1  0
  8 10  2  0
 10 16  1  0
 16 17  1  0
 10 11  1  0
 11 12  2  0
 12 13  1  0
 27 19  1  0
 12  6  1  0
 21 28  1  0
 24 29  1  0
  4  5  1  0
  9 14  1  0
 13 15  1  0
M  END
> <minimizedAffinity>
-7.29758

> <CNNscore>
0.5652715564

> <CNNaffinity>
5.1412487030

> <CNN_VS>
2.9062016010

> <CNNaffinity_variance>
0.5469081998

$$$$



 33 34  0  0  0  0  0  0  0  0999 V2000
   21.0615   34.8632    7.0583 C   0  0  0  0  0  0  0  0  0  0  0  0
   22.5368   34.5245    6.9324 C   0  0  0  0  0  0  0  0  0  0  0  0
   23.1320   33.8667    7.7786 O   0  0  0  0  0  0  0  0  0  0  0  0
   23.0855   35.0055    5.7626 N   0  0  0  0  0  0  0  0  0  0  0  0
   22.4661   35.5128    5.1898 H   0  0  0  0  0  0  0  0  0  0  0  0
   24.4055   34.8820    5.2573 C   0  0  0  0  0  0  0  0  0  0  0  0
   25.1183   36.0916    5.1726 C   0  0  0  0  0  0  0  0  0  0  0  0
   26.4298   36.1245    4.6880 C   0  0  0  0  0  0  0  0  0  0  0  0
   27.1008   37.3174    4.6178 O   0  0  0  0  0  0  0  0  0  0  0  0
   27.0739   34.9579    4.2703 C   0  0  0  0  0  0  0  0  0  0  0  0
   26.3747   33.7555    4.3500 C   0  0  0  0  0  0  0  0  0  0  0  0
   25.0586   33.7144    4.8370 C   0  0  0  0  0  0  0  0  0  0  0  0
   24.5264   32.4571    4.8420 O   0  0  0  0  0  0  0  0  0  0  0  0
   26.6810   38.1080    4.8947 H   0  0  0  0  0  0  0  0  0  0  0  0
   25.0371   31.7310    4.5420 H   0  0  0  0  0  0  0  0  0  0  0  0
   28.3561   35.0986    3.8116 O   0  0  0  0  0  0  0  0  0  0  0  0
   29.3785   34.4078    4.5160 C   0  0  0  0  0  0  0  0  0  0  0  0
   20.4547   35.2308    5.7039 C   0  0  0  0  0  0  0  0  0  0  0  0
   19.5160   33.3834    4.1924 C   0  0  0  0  0  0  0  0  0  0  0  0
   18.4526   32.5480    3.7961 C   0  0  0  0  0  0  0  0  0  0  0  0
   18.5233   31.6699    2.7474 O   0  0  0  0  0  0  0  0  0  0  0  0
   17.2409   32.5610    4.4779 C   0  0  0  0  0  0  0  0  0  0  0  0
   17.0757   33.4181    5.5548 C   0  0  0  0  0  0  0  0  0  0  0  0
   15.8641   33.3879    6.1914 O   0  0  0  0  0  0  0  0  0  0  0  0
   18.1094   34.2733    5.9602 C   0  0  0  0  0  0  0  0  0  0  0  0
   17.8072   35.3046    7.3226 Cl  0  0  0  0  0  0  0  0  0  0  0  0
   19.3476   34.2807    5.2816 C   0  0  0  0  0  0  0  0  0  0  0  0
   19.3095   31.6064    2.2417 H   0  0  0  0  0  0  0  0  0  0  0  0
   15.1936   32.8042    5.8952 H   0  0  0  0  0  0  0  0  0  0  0  0
   20.8332   33.2688    3.5096 C   0  0  0  0  0  0  0  0  0  0  0  0
   21.8362   32.8009    4.0201 O   0  0  0  0  0  0  0  0  0  0  0  0
   21.9510   34.3584    1.7714 C   0  0  0  0  0  0  0  0  0  0  0  0
   20.7367   33.7718    2.2507 O   0  0  0  0  0  0  0  0  0  0  0  0
 32 33  1  0
 33 30  1  0
 30 31  2  0
 30 19  1  0
 19 20  2  0
 20 21  1  0
 20 22  1  0
 22 23  2  0
 23 24  1  0
 23 25  1  0
 25 26  1  0
 25 27  2  0
 27 18  1  0
 18  1  1  0
  1  2  1  0
  2  3  2  0
  2  4  1  0
  4  6  1  0
  6  7  2  0
  7  8  1  0
  8  9  1  0
  8 10  2  0
 10 16  1  0
 16 17  1  0
 10 11  1  0
 11 12  2  0
 12 13  1  0
 27 19  1  0
 12  6  1  0
 21 28  1  0
 24 29  1  0
  4  5  1  0
  9 14  1  0
 13 15  1  0
M  END
> <minimizedAffinity>
-6.47775

> <CNNscore>
0.5482277274

> <CNNaffinity>
5.3114433289

> <CNN_VS>
2.9118804932

> <CNNaffinity_variance>
0.1600058377

$$$$
