


 31 35  0  0  0  0  0  0  0  0999 V2000
   -1.7009   12.0844   22.1846 C   0  0  0  0  0  0  0  0  0  0  0  0
   -2.0640   13.4882   21.8935 N   0  0  0  0  0  0  0  0  0  0  0  0
   -1.0382   14.4576   22.2935 C   0  0  0  0  0  0  0  0  0  0  0  0
   -0.0535   14.5389   21.1334 C   0  0  0  0  0  0  0  0  0  0  0  0
   -0.7559   13.8855   19.9481 C   0  0  0  0  0  0  0  0  0  0  0  0
   -2.1789   13.6028   20.4326 C   0  0  0  0  0  0  0  0  0  0  0  0
   -2.7360   12.2639   19.9828 C   0  0  0  0  0  0  0  0  0  0  0  0
   -4.2386   12.3077   19.9204 C   0  0  0  0  0  0  0  0  0  0  0  0
   -4.8846   12.8634   19.0466 O   0  0  0  0  0  0  0  0  0  0  0  0
   -4.7557   11.5804   20.9465 N   0  0  0  0  0  0  0  0  0  0  0  0
   -3.8073   10.7990   21.5288 C   0  0  0  0  0  0  0  0  0  0  0  0
   -4.0241    9.7986   22.1976 O   0  0  0  0  0  0  0  0  0  0  0  0
   -2.4418   11.2790   21.1178 C   0  0  0  0  0  0  0  0  0  0  0  0
   -2.6895   12.4609   24.5426 C   0  0  0  0  0  0  0  0  0  0  0  0
   -2.7443   11.7374   25.6935 O   0  0  0  0  0  0  0  0  0  0  0  0
   -2.1073   10.5549   25.4005 C   0  0  0  0  0  0  0  0  0  0  0  0
   -1.6415   10.5102   24.1626 N   0  0  0  0  0  0  0  0  0  0  0  0
   -2.0284   11.7119   23.5949 C   0  0  0  0  0  0  0  0  0  0  0  0
   -1.9614    9.4687   26.3322 C   0  0  0  0  0  0  0  0  0  0  0  0
   -0.7195    8.2982   26.1693 S   0  0  0  0  0  0  0  0  0  0  0  0
   -1.2266    7.4892   27.5661 C   0  0  0  0  0  0  0  0  0  0  0  0
   -0.3830    6.0889   28.0974 Cl  0  0  0  0  0  0  0  0  0  0  0  0
   -2.3191    8.0586   28.1650 C   0  0  0  0  0  0  0  0  0  0  0  0
   -2.7508    9.2117   27.4445 C   0  0  0  0  0  0  0  0  0  0  0  0
   -6.1724   11.4100   21.1839 C   0  0  0  0  0  0  0  0  0  0  0  0
   -6.8734   10.6840   20.0315 C   0  0  0  0  0  0  0  0  0  0  0  0
   -6.6154    9.1857   20.1337 C   0  0  0  0  0  0  0  0  0  0  0  0
   -6.4412    8.4867   18.7719 N   0  0  0  0  0  0  0  0  0  0  0  0
   -5.9258    9.4509   17.7082 C   0  0  0  0  0  0  0  0  0  0  0  0
   -5.3946    7.3815   18.9525 C   0  0  0  0  0  0  0  0  0  0  0  0
   -7.7378    7.8420   18.3013 C   0  0  0  0  0  0  0  0  0  0  0  0
 14 15  1  0
 15 16  1  0
 16 19  1  0
 19 20  1  0
 20 21  1  0
 21 22  1  0
 21 23  2  0
 23 24  1  0
 16 17  2  0
 17 18  1  0
  1 18  1  0
  1  2  1  0
  2  3  1  0
  3  4  1  0
  4  5  1  0
  6  5  1  0
  6  7  1  0
  7  8  1  0
  8  9  2  0
  8 10  1  0
 10 25  1  0
 25 26  1  0
 26 27  1  0
 27 28  1  0
 28 29  1  0
 28 30  1  0
 28 31  1  0
 10 11  1  0
 11 12  2  0
 13 11  1  0
 18 14  2  0
 13  1  1  0
 24 19  2  0
  6  2  1  0
 13  7  1  0
M  CHG 1  28   1
M  END
> <minimizedAffinity>
-7.85409

> <CNNscore>
0.9575898647

> <CNNaffinity>
7.8353157043

> <CNN_VS>
7.5030188560

> <CNNaffinity_variance>
0.2223672718

$$$$



 31 35  0  0  0  0  0  0  0  0999 V2000
   -3.4429   13.0042   23.3609 C   0  0  0  0  0  0  0  0  0  0  0  0
   -4.7898   12.9285   23.9672 N   0  0  0  0  0  0  0  0  0  0  0  0
   -4.9369   13.7404   25.1801 C   0  0  0  0  0  0  0  0  0  0  0  0
   -5.2967   15.1450   24.7113 C   0  0  0  0  0  0  0  0  0  0  0  0
   -5.7105   15.0003   23.2509 C   0  0  0  0  0  0  0  0  0  0  0  0
   -5.7286   13.4937   22.9876 C   0  0  0  0  0  0  0  0  0  0  0  0
   -5.1661   13.0904   21.6362 C   0  0  0  0  0  0  0  0  0  0  0  0
   -5.7621   11.7862   21.1805 C   0  0  0  0  0  0  0  0  0  0  0  0
   -6.8936   11.6514   20.7432 O   0  0  0  0  0  0  0  0  0  0  0  0
   -4.8257   10.8043   21.2712 N   0  0  0  0  0  0  0  0  0  0  0  0
   -3.5799   11.3206   21.4463 C   0  0  0  0  0  0  0  0  0  0  0  0
   -2.5309   10.7440   21.1971 O   0  0  0  0  0  0  0  0  0  0  0  0
   -3.6898   12.7594   21.8728 C   0  0  0  0  0  0  0  0  0  0  0  0
   -1.1386   11.9185   23.7975 C   0  0  0  0  0  0  0  0  0  0  0  0
   -0.6817   10.9048   24.5816 O   0  0  0  0  0  0  0  0  0  0  0  0
   -1.7908   10.4471   25.2527 C   0  0  0  0  0  0  0  0  0  0  0  0
   -2.8997   11.0871   24.9179 N   0  0  0  0  0  0  0  0  0  0  0  0
   -2.4935   12.0471   24.0071 C   0  0  0  0  0  0  0  0  0  0  0  0
   -1.7610    9.3874   26.2250 C   0  0  0  0  0  0  0  0  0  0  0  0
   -0.5692    8.1558   26.1840 S   0  0  0  0  0  0  0  0  0  0  0  0
   -1.2079    7.4189   27.5667 C   0  0  0  0  0  0  0  0  0  0  0  0
   -0.4709    5.9998   28.1974 Cl  0  0  0  0  0  0  0  0  0  0  0  0
   -2.3092    8.0583   28.0712 C   0  0  0  0  0  0  0  0  0  0  0  0
   -2.6349    9.2051   27.2877 C   0  0  0  0  0  0  0  0  0  0  0  0
   -5.0636    9.4238   20.9104 C   0  0  0  0  0  0  0  0  0  0  0  0
   -4.9010    9.1778   19.4073 C   0  0  0  0  0  0  0  0  0  0  0  0
   -5.1497    7.7070   19.0961 C   0  0  0  0  0  0  0  0  0  0  0  0
   -6.3467    7.4599   18.1582 N   0  0  0  0  0  0  0  0  0  0  0  0
   -7.2635    6.3653   18.6949 C   0  0  0  0  0  0  0  0  0  0  0  0
   -7.1552    8.7605   18.0915 C   0  0  0  0  0  0  0  0  0  0  0  0
   -5.8925    7.1091   16.7479 C   0  0  0  0  0  0  0  0  0  0  0  0
 14 15  1  0
 15 16  1  0
 16 19  1  0
 19 20  1  0
 20 21  1  0
 21 22  1  0
 21 23  2  0
 23 24  1  0
 16 17  2  0
 17 18  1  0
  1 18  1  0
  1  2  1  0
  2  3  1  0
  3  4  1  0
  4  5  1  0
  6  5  1  0
  6  7  1  0
  7  8  1  0
  8  9  2  0
  8 10  1  0
 10 25  1  0
 25 26  1  0
 26 27  1  0
 27 28  1  0
 28 29  1  0
 28 30  1  0
 28 31  1  0
 10 11  1  0
 11 12  2  0
 13 11  1  0
 18 14  2  0
 13  1  1  0
 24 19  2  0
  6  2  1  0
 13  7  1  0
M  CHG 1  28   1
M  END
> <minimizedAffinity>
-8.31567

> <CNNscore>
0.9558766484

> <CNNaffinity>
8.1096105576

> <CNN_VS>
7.7517871857

> <CNNaffinity_variance>
0.2668862641

$$$$



 31 35  0  0  0  0  0  0  0  0999 V2000
   -5.6116   13.6386   22.9570 C   0  0  0  0  0  0  0  0  0  0  0  0
   -6.8963   12.9323   23.1523 N   0  0  0  0  0  0  0  0  0  0  0  0
   -7.7822   13.5785   24.1267 C   0  0  0  0  0  0  0  0  0  0  0  0
   -8.5571   14.6421   23.3582 C   0  0  0  0  0  0  0  0  0  0  0  0
   -8.3550   14.3155   21.8825 C   0  0  0  0  0  0  0  0  0  0  0  0
   -7.6073   12.9813   21.8668 C   0  0  0  0  0  0  0  0  0  0  0  0
   -6.5141   12.8919   20.8170 C   0  0  0  0  0  0  0  0  0  0  0  0
   -6.2740   11.4605   20.4206 C   0  0  0  0  0  0  0  0  0  0  0  0
   -7.0096   10.8029   19.7021 O   0  0  0  0  0  0  0  0  0  0  0  0
   -5.0853   11.0424   20.9319 N   0  0  0  0  0  0  0  0  0  0  0  0
   -4.3396   12.0894   21.3755 C   0  0  0  0  0  0  0  0  0  0  0  0
   -3.1273   12.0809   21.5344 O   0  0  0  0  0  0  0  0  0  0  0  0
   -5.2169   13.3034   21.5191 C   0  0  0  0  0  0  0  0  0  0  0  0
   -4.0822   14.0226   25.0045 C   0  0  0  0  0  0  0  0  0  0  0  0
   -3.1839   13.2683   25.6938 O   0  0  0  0  0  0  0  0  0  0  0  0
   -3.1948   12.0436   25.0692 C   0  0  0  0  0  0  0  0  0  0  0  0
   -4.0135   11.9991   24.0304 N   0  0  0  0  0  0  0  0  0  0  0  0
   -4.6062   13.2495   23.9926 C   0  0  0  0  0  0  0  0  0  0  0  0
   -2.4074   10.9176   25.4950 C   0  0  0  0  0  0  0  0  0  0  0  0
   -2.8515    9.9637   26.8483 S   0  0  0  0  0  0  0  0  0  0  0  0
   -1.5158    8.9471   26.6364 C   0  0  0  0  0  0  0  0  0  0  0  0
   -1.2682    7.6254   27.7073 Cl  0  0  0  0  0  0  0  0  0  0  0  0
   -0.7200    9.2986   25.5783 C   0  0  0  0  0  0  0  0  0  0  0  0
   -1.2372   10.4499   24.9133 C   0  0  0  0  0  0  0  0  0  0  0  0
   -4.5447    9.7144   20.7406 C   0  0  0  0  0  0  0  0  0  0  0  0
   -5.5645    8.7533   20.1219 C   0  0  0  0  0  0  0  0  0  0  0  0
   -4.9878    8.1369   18.8533 C   0  0  0  0  0  0  0  0  0  0  0  0
   -5.9276    7.1290   18.1646 N   0  0  0  0  0  0  0  0  0  0  0  0
   -5.3826    5.7066   18.2476 C   0  0  0  0  0  0  0  0  0  0  0  0
   -7.2664    7.1644   18.9102 C   0  0  0  0  0  0  0  0  0  0  0  0
   -6.1826    7.5013   16.7105 C   0  0  0  0  0  0  0  0  0  0  0  0
 14 15  1  0
 15 16  1  0
 16 19  1  0
 19 20  1  0
 20 21  1  0
 21 22  1  0
 21 23  2  0
 23 24  1  0
 16 17  2  0
 17 18  1  0
  1 18  1  0
  1  2  1  0
  2  3  1  0
  3  4  1  0
  4  5  1  0
  6  5  1  0
  6  7  1  0
  7  8  1  0
  8  9  2  0
  8 10  1  0
 10 25  1  0
 25 26  1  0
 26 27  1  0
 27 28  1  0
 28 29  1  0
 28 30  1  0
 28 31  1  0
 10 11  1  0
 11 12  2  0
 13 11  1  0
 18 14  2  0
 13  1  1  0
 24 19  2  0
  6  2  1  0
 13  7  1  0
M  CHG 1  28   1
M  END
> <minimizedAffinity>
-7.32069

> <CNNscore>
0.8806153536

> <CNNaffinity>
7.4617977142

> <CNN_VS>
6.5709733963

> <CNNaffinity_variance>
0.0769452304

$$$$



 31 35  0  0  0  0  0  0  0  0999 V2000
   -3.2869   12.0108   22.8171 C   0  0  0  0  0  0  0  0  0  0  0  0
   -2.3957   13.1080   22.3821 N   0  0  0  0  0  0  0  0  0  0  0  0
   -1.0858   12.6502   21.9064 C   0  0  0  0  0  0  0  0  0  0  0  0
   -1.2661   12.2988   20.4346 C   0  0  0  0  0  0  0  0  0  0  0  0
   -2.5937   12.9237   20.0198 C   0  0  0  0  0  0  0  0  0  0  0  0
   -3.0426   13.7478   21.2277 C   0  0  0  0  0  0  0  0  0  0  0  0
   -4.5297   13.6630   21.5221 C   0  0  0  0  0  0  0  0  0  0  0  0
   -5.0007   14.8995   22.2384 C   0  0  0  0  0  0  0  0  0  0  0  0
   -5.1728   15.9874   21.7126 O   0  0  0  0  0  0  0  0  0  0  0  0
   -5.2643   14.5971   23.5378 N   0  0  0  0  0  0  0  0  0  0  0  0
   -5.3211   13.2527   23.7332 C   0  0  0  0  0  0  0  0  0  0  0  0
   -5.8847   12.6934   24.6631 O   0  0  0  0  0  0  0  0  0  0  0  0
   -4.6939   12.5494   22.5602 C   0  0  0  0  0  0  0  0  0  0  0  0
   -2.9984   12.4041   25.3551 C   0  0  0  0  0  0  0  0  0  0  0  0
   -2.6839   11.6230   26.4237 O   0  0  0  0  0  0  0  0  0  0  0  0
   -2.5206   10.3603   25.9050 C   0  0  0  0  0  0  0  0  0  0  0  0
   -2.6849   10.3140   24.5927 N   0  0  0  0  0  0  0  0  0  0  0  0
   -3.0155   11.6086   24.2312 C   0  0  0  0  0  0  0  0  0  0  0  0
   -2.2097    9.2005   26.6971 C   0  0  0  0  0  0  0  0  0  0  0  0
   -0.8771    8.1861   26.3308 S   0  0  0  0  0  0  0  0  0  0  0  0
   -1.2090    7.1842   27.6533 C   0  0  0  0  0  0  0  0  0  0  0  0
   -0.2028    5.8274   27.9723 Cl  0  0  0  0  0  0  0  0  0  0  0  0
   -2.3067    7.5723   28.3750 C   0  0  0  0  0  0  0  0  0  0  0  0
   -2.8933    8.7467   27.8165 C   0  0  0  0  0  0  0  0  0  0  0  0
   -5.7386   15.5562   24.5113 C   0  0  0  0  0  0  0  0  0  0  0  0
   -7.2522   15.7747   24.4248 C   0  0  0  0  0  0  0  0  0  0  0  0
   -7.5415   17.1414   23.8160 C   0  0  0  0  0  0  0  0  0  0  0  0
   -7.6354   18.2795   24.8500 N   0  0  0  0  0  0  0  0  0  0  0  0
   -8.3762   17.8356   26.1073 C   0  0  0  0  0  0  0  0  0  0  0  0
   -6.2048   18.6537   25.2537 C   0  0  0  0  0  0  0  0  0  0  0  0
   -8.3037   19.5163   24.2651 C   0  0  0  0  0  0  0  0  0  0  0  0
 14 15  1  0
 15 16  1  0
 16 19  1  0
 19 20  1  0
 20 21  1  0
 21 22  1  0
 21 23  2  0
 23 24  1  0
 16 17  2  0
 17 18  1  0
  1 18  1  0
  1  2  1  0
  2  3  1  0
  3  4  1  0
  4  5  1  0
  6  5  1  0
  6  7  1  0
  7  8  1  0
  8  9  2  0
  8 10  1  0
 10 25  1  0
 25 26  1  0
 26 27  1  0
 27 28  1  0
 28 29  1  0
 28 30  1  0
 28 31  1  0
 10 11  1  0
 11 12  2  0
 13 11  1  0
 18 14  2  0
 13  1  1  0
 24 19  2  0
  6  2  1  0
 13  7  1  0
M  CHG 1  28   1
M  END
> <minimizedAffinity>
-7.19685

> <CNNscore>
0.7864317298

> <CNNaffinity>
6.9621829987

> <CNN_VS>
5.4752817154

> <CNNaffinity_variance>
0.1199881732

$$$$



 31 35  0  0  0  0  0  0  0  0999 V2000
   -6.6919    8.5226   17.2847 C   0  0  0  0  0  0  0  0  0  0  0  0
   -7.1052    7.5906   18.3561 N   0  0  0  0  0  0  0  0  0  0  0  0
   -7.6573    6.3263   17.8574 C   0  0  0  0  0  0  0  0  0  0  0  0
   -6.4655    5.4100   17.6079 C   0  0  0  0  0  0  0  0  0  0  0  0
   -5.2881    6.0573   18.3289 C   0  0  0  0  0  0  0  0  0  0  0  0
   -5.8890    7.2334   19.1004 C   0  0  0  0  0  0  0  0  0  0  0  0
   -5.0396    8.4917   19.0793 C   0  0  0  0  0  0  0  0  0  0  0  0
   -5.3131    9.3376   20.2932 C   0  0  0  0  0  0  0  0  0  0  0  0
   -4.9112    9.0923   21.4192 O   0  0  0  0  0  0  0  0  0  0  0  0
   -6.0164   10.4421   19.9262 N   0  0  0  0  0  0  0  0  0  0  0  0
   -6.0032   10.6139   18.5774 C   0  0  0  0  0  0  0  0  0  0  0  0
   -6.2136   11.6675   17.9936 O   0  0  0  0  0  0  0  0  0  0  0  0
   -5.5625    9.3371   17.9144 C   0  0  0  0  0  0  0  0  0  0  0  0
   -7.9493   10.0199   15.5947 C   0  0  0  0  0  0  0  0  0  0  0  0
   -9.1648   10.6304   15.5633 O   0  0  0  0  0  0  0  0  0  0  0  0
   -9.7676   10.2832   16.7491 C   0  0  0  0  0  0  0  0  0  0  0  0
   -9.0009    9.5269   17.5181 N   0  0  0  0  0  0  0  0  0  0  0  0
   -7.8453    9.3298   16.7818 C   0  0  0  0  0  0  0  0  0  0  0  0
  -11.0960   10.6883   17.1238 C   0  0  0  0  0  0  0  0  0  0  0  0
  -12.4654   10.2878   16.1733 S   0  0  0  0  0  0  0  0  0  0  0  0
  -13.5093   11.0620   17.2567 C   0  0  0  0  0  0  0  0  0  0  0  0
  -15.2010   11.0761   16.9524 Cl  0  0  0  0  0  0  0  0  0  0  0  0
  -12.8684   11.6340   18.3237 C   0  0  0  0  0  0  0  0  0  0  0  0
  -11.4602   11.4194   18.2459 C   0  0  0  0  0  0  0  0  0  0  0  0
   -6.4457   11.4710   20.8479 C   0  0  0  0  0  0  0  0  0  0  0  0
   -5.2872   12.3604   21.3096 C   0  0  0  0  0  0  0  0  0  0  0  0
   -5.8357   13.6184   21.9718 C   0  0  0  0  0  0  0  0  0  0  0  0
   -5.4528   13.7610   23.4572 N   0  0  0  0  0  0  0  0  0  0  0  0
   -4.6059   15.0061   23.7013 C   0  0  0  0  0  0  0  0  0  0  0  0
   -6.7528   13.9119   24.2551 C   0  0  0  0  0  0  0  0  0  0  0  0
   -4.7203   12.5284   23.9696 C   0  0  0  0  0  0  0  0  0  0  0  0
 14 15  1  0
 15 16  1  0
 16 19  1  0
 19 20  1  0
 20 21  1  0
 21 22  1  0
 21 23  2  0
 23 24  1  0
 16 17  2  0
 17 18  1  0
  1 18  1  0
  1  2  1  0
  2  3  1  0
  3  4  1  0
  4  5  1  0
  6  5  1  0
  6  7  1  0
  7  8  1  0
  8  9  2  0
  8 10  1  0
 10 25  1  0
 25 26  1  0
 26 27  1  0
 27 28  1  0
 28 29  1  0
 28 30  1  0
 28 31  1  0
 10 11  1  0
 11 12  2  0
 13 11  1  0
 18 14  2  0
 13  1  1  0
 24 19  2  0
  6  2  1  0
 13  7  1  0
M  CHG 1  28   1
M  END
> <minimizedAffinity>
-5.58747

> <CNNscore>
0.6386781931

> <CNNaffinity>
6.6372914314

> <CNN_VS>
4.2390933037

> <CNNaffinity_variance>
0.1510343850

$$$$



 31 35  0  0  0  0  0  0  0  0999 V2000
   -3.6406   14.0084   22.0118 C   0  0  0  0  0  0  0  0  0  0  0  0
   -4.8508   14.0578   22.8605 N   0  0  0  0  0  0  0  0  0  0  0  0
   -4.7945   15.0828   23.9084 C   0  0  0  0  0  0  0  0  0  0  0  0
   -5.2718   16.3782   23.2633 C   0  0  0  0  0  0  0  0  0  0  0  0
   -5.9426   15.9671   21.9571 C   0  0  0  0  0  0  0  0  0  0  0  0
   -5.9682   14.4380   21.9846 C   0  0  0  0  0  0  0  0  0  0  0  0
   -5.6527   13.7853   20.6505 C   0  0  0  0  0  0  0  0  0  0  0  0
   -6.2871   12.4238   20.5621 C   0  0  0  0  0  0  0  0  0  0  0  0
   -7.4756   12.2189   20.3746 O   0  0  0  0  0  0  0  0  0  0  0  0
   -5.3239   11.4686   20.6574 N   0  0  0  0  0  0  0  0  0  0  0  0
   -4.0815   11.9984   20.5002 C   0  0  0  0  0  0  0  0  0  0  0  0
   -3.0809   11.3772   20.1718 O   0  0  0  0  0  0  0  0  0  0  0  0
   -4.1498   13.4923   20.6664 C   0  0  0  0  0  0  0  0  0  0  0  0
   -1.2042   13.2528   22.4270 C   0  0  0  0  0  0  0  0  0  0  0  0
   -0.6062   12.2955   23.1867 O   0  0  0  0  0  0  0  0  0  0  0  0
   -1.6378   11.6671   23.8432 C   0  0  0  0  0  0  0  0  0  0  0  0
   -2.8272   12.1501   23.5217 N   0  0  0  0  0  0  0  0  0  0  0  0
   -2.5634   13.1810   22.6363 C   0  0  0  0  0  0  0  0  0  0  0  0
   -1.4557   10.5986   24.7889 C   0  0  0  0  0  0  0  0  0  0  0  0
   -2.5294   10.3623   26.1042 S   0  0  0  0  0  0  0  0  0  0  0  0
   -1.6655    9.0075   26.6343 C   0  0  0  0  0  0  0  0  0  0  0  0
   -2.1917    8.1487   28.0273 Cl  0  0  0  0  0  0  0  0  0  0  0  0
   -0.5725    8.7160   25.8618 C   0  0  0  0  0  0  0  0  0  0  0  0
   -0.4470    9.6451   24.7866 C   0  0  0  0  0  0  0  0  0  0  0  0
   -5.5869   10.0470   20.6082 C   0  0  0  0  0  0  0  0  0  0  0  0
   -5.9224    9.5648   19.1936 C   0  0  0  0  0  0  0  0  0  0  0  0
   -5.2117    8.2455   18.9169 C   0  0  0  0  0  0  0  0  0  0  0  0
   -6.1020    7.1851   18.2414 N   0  0  0  0  0  0  0  0  0  0  0  0
   -6.3963    7.5428   16.7881 C   0  0  0  0  0  0  0  0  0  0  0  0
   -5.3302    5.8609   18.2534 C   0  0  0  0  0  0  0  0  0  0  0  0
   -7.4072    6.9822   18.9988 C   0  0  0  0  0  0  0  0  0  0  0  0
 14 15  1  0
 15 16  1  0
 16 19  1  0
 19 20  1  0
 20 21  1  0
 21 22  1  0
 21 23  2  0
 23 24  1  0
 16 17  2  0
 17 18  1  0
  1 18  1  0
  1  2  1  0
  2  3  1  0
  3  4  1  0
  4  5  1  0
  6  5  1  0
  6  7  1  0
  7  8  1  0
  8  9  2  0
  8 10  1  0
 10 25  1  0
 25 26  1  0
 26 27  1  0
 27 28  1  0
 28 29  1  0
 28 30  1  0
 28 31  1  0
 10 11  1  0
 11 12  2  0
 13 11  1  0
 18 14  2  0
 13  1  1  0
 24 19  2  0
  6  2  1  0
 13  7  1  0
M  CHG 1  28   1
M  END
> <minimizedAffinity>
-7.51752

> <CNNscore>
0.5784907937

> <CNNaffinity>
6.9622416496

> <CNN_VS>
4.0275926590

> <CNNaffinity_variance>
0.0446770526

$$$$



 31 35  0  0  0  0  0  0  0  0999 V2000
   -6.1651    8.3321   17.4308 C   0  0  0  0  0  0  0  0  0  0  0  0
   -7.5270    7.8400   17.7315 N   0  0  0  0  0  0  0  0  0  0  0  0
   -8.0230    6.8516   16.7676 C   0  0  0  0  0  0  0  0  0  0  0  0
   -7.4998    5.4994   17.2367 C   0  0  0  0  0  0  0  0  0  0  0  0
   -7.0277    5.7135   18.6707 C   0  0  0  0  0  0  0  0  0  0  0  0
   -7.4503    7.1408   19.0221 C   0  0  0  0  0  0  0  0  0  0  0  0
   -6.4190    7.9173   19.8214 C   0  0  0  0  0  0  0  0  0  0  0  0
   -7.0818    8.9857   20.6478 C   0  0  0  0  0  0  0  0  0  0  0  0
   -7.7145    8.7835   21.6717 O   0  0  0  0  0  0  0  0  0  0  0  0
   -6.8097   10.2059   20.1126 N   0  0  0  0  0  0  0  0  0  0  0  0
   -5.8026   10.1354   19.2017 C   0  0  0  0  0  0  0  0  0  0  0  0
   -5.1043   11.0721   18.8411 O   0  0  0  0  0  0  0  0  0  0  0  0
   -5.5918    8.7011   18.7985 C   0  0  0  0  0  0  0  0  0  0  0  0
   -5.1698    9.8875   15.6227 C   0  0  0  0  0  0  0  0  0  0  0  0
   -5.6296   10.9422   14.8965 O   0  0  0  0  0  0  0  0  0  0  0  0
   -6.9337   11.1088   15.2986 C   0  0  0  0  0  0  0  0  0  0  0  0
   -7.2999   10.2514   16.2378 N   0  0  0  0  0  0  0  0  0  0  0  0
   -6.1899    9.4485   16.4368 C   0  0  0  0  0  0  0  0  0  0  0  0
   -7.8204   12.1038   14.7574 C   0  0  0  0  0  0  0  0  0  0  0  0
   -7.8445   12.4800   13.0851 S   0  0  0  0  0  0  0  0  0  0  0  0
   -9.0732   13.6220   13.3060 C   0  0  0  0  0  0  0  0  0  0  0  0
   -9.6880   14.4892   11.9551 Cl  0  0  0  0  0  0  0  0  0  0  0  0
   -9.4752   13.7516   14.6091 C   0  0  0  0  0  0  0  0  0  0  0  0
   -8.7431   12.8687   15.4574 C   0  0  0  0  0  0  0  0  0  0  0  0
   -7.2916   11.4550   20.6602 C   0  0  0  0  0  0  0  0  0  0  0  0
   -6.3713   12.0057   21.7539 C   0  0  0  0  0  0  0  0  0  0  0  0
   -7.2045   12.4738   22.9408 C   0  0  0  0  0  0  0  0  0  0  0  0
   -6.4997   13.5193   23.8261 N   0  0  0  0  0  0  0  0  0  0  0  0
   -5.4835   12.8700   24.7602 C   0  0  0  0  0  0  0  0  0  0  0  0
   -5.7421   14.4739   22.8965 C   0  0  0  0  0  0  0  0  0  0  0  0
   -7.4985   14.3356   24.6350 C   0  0  0  0  0  0  0  0  0  0  0  0
 14 15  1  0
 15 16  1  0
 16 19  1  0
 19 20  1  0
 20 21  1  0
 21 22  1  0
 21 23  2  0
 23 24  1  0
 16 17  2  0
 17 18  1  0
  1 18  1  0
  1  2  1  0
  2  3  1  0
  3  4  1  0
  4  5  1  0
  6  5  1  0
  6  7  1  0
  7  8  1  0
  8  9  2  0
  8 10  1  0
 10 25  1  0
 25 26  1  0
 26 27  1  0
 27 28  1  0
 28 29  1  0
 28 30  1  0
 28 31  1  0
 10 11  1  0
 11 12  2  0
 13 11  1  0
 18 14  2  0
 13  1  1  0
 24 19  2  0
  6  2  1  0
 13  7  1  0
M  CHG 1  28   1
M  END
> <minimizedAffinity>
-5.73773

> <CNNscore>
0.5676247478

> <CNNaffinity>
6.6625728607

> <CNN_VS>
3.7818412781

> <CNNaffinity_variance>
0.2783784568

$$$$



 31 35  0  0  0  0  0  0  0  0999 V2000
   -6.5491    8.3008   19.1088 C   0  0  0  0  0  0  0  0  0  0  0  0
   -6.0639    7.6128   17.8928 N   0  0  0  0  0  0  0  0  0  0  0  0
   -5.2229    6.4439   18.1725 C   0  0  0  0  0  0  0  0  0  0  0  0
   -6.1761    5.2727   18.3774 C   0  0  0  0  0  0  0  0  0  0  0  0
   -7.5243    5.7372   17.8375 C   0  0  0  0  0  0  0  0  0  0  0  0
   -7.2503    7.0978   17.1945 C   0  0  0  0  0  0  0  0  0  0  0  0
   -8.3290    8.1357   17.4486 C   0  0  0  0  0  0  0  0  0  0  0  0
   -8.3513    9.1596   16.3464 C   0  0  0  0  0  0  0  0  0  0  0  0
   -8.8039    8.9714   15.2286 O   0  0  0  0  0  0  0  0  0  0  0  0
   -7.8517   10.3359   16.8110 N   0  0  0  0  0  0  0  0  0  0  0  0
   -7.7671   10.3381   18.1682 C   0  0  0  0  0  0  0  0  0  0  0  0
   -7.7166   11.3346   18.8749 O   0  0  0  0  0  0  0  0  0  0  0  0
   -7.8752    8.9268   18.6787 C   0  0  0  0  0  0  0  0  0  0  0  0
   -4.5874    9.9739   18.9317 C   0  0  0  0  0  0  0  0  0  0  0  0
   -3.8685   10.7163   19.8167 O   0  0  0  0  0  0  0  0  0  0  0  0
   -4.4167   10.4336   21.0454 C   0  0  0  0  0  0  0  0  0  0  0  0
   -5.4012    9.5515   20.9829 N   0  0  0  0  0  0  0  0  0  0  0  0
   -5.5378    9.2680   19.6349 C   0  0  0  0  0  0  0  0  0  0  0  0
   -3.9786   11.0327   22.2776 C   0  0  0  0  0  0  0  0  0  0  0  0
   -4.7772   12.3886   22.9578 S   0  0  0  0  0  0  0  0  0  0  0  0
   -3.7201   12.4148   24.2787 C   0  0  0  0  0  0  0  0  0  0  0  0
   -3.9149   13.6016   25.5068 Cl  0  0  0  0  0  0  0  0  0  0  0  0
   -2.7609   11.4378   24.2343 C   0  0  0  0  0  0  0  0  0  0  0  0
   -2.9086   10.6327   23.0659 C   0  0  0  0  0  0  0  0  0  0  0  0
   -7.7302   11.5352   16.0115 C   0  0  0  0  0  0  0  0  0  0  0  0
   -9.0369   12.3326   15.9543 C   0  0  0  0  0  0  0  0  0  0  0  0
   -9.5472   12.3832   14.5193 C   0  0  0  0  0  0  0  0  0  0  0  0
   -9.9922   13.7856   14.0629 N   0  0  0  0  0  0  0  0  0  0  0  0
  -11.2615   14.2329   14.7810 C   0  0  0  0  0  0  0  0  0  0  0  0
   -8.8729   14.7661   14.4306 C   0  0  0  0  0  0  0  0  0  0  0  0
  -10.2017   13.8459   12.5560 C   0  0  0  0  0  0  0  0  0  0  0  0
 14 15  1  0
 15 16  1  0
 16 19  1  0
 19 20  1  0
 20 21  1  0
 21 22  1  0
 21 23  2  0
 23 24  1  0
 16 17  2  0
 17 18  1  0
  1 18  1  0
  1  2  1  0
  2  3  1  0
  3  4  1  0
  4  5  1  0
  6  5  1  0
  6  7  1  0
  7  8  1  0
  8  9  2  0
  8 10  1  0
 10 25  1  0
 25 26  1  0
 26 27  1  0
 27 28  1  0
 28 29  1  0
 28 30  1  0
 28 31  1  0
 10 11  1  0
 11 12  2  0
 13 11  1  0
 18 14  2  0
 13  1  1  0
 24 19  2  0
  6  2  1  0
 13  7  1  0
M  CHG 1  28   1
M  END
> <minimizedAffinity>
-6.03411

> <CNNscore>
0.5116624832

> <CNNaffinity>
6.7698292732

> <CNN_VS>
3.4638676643

> <CNNaffinity_variance>
0.2456780225

$$$$



 31 35  0  0  0  0  0  0  0  0999 V2000
   -3.3025   12.0004   22.6329 C   0  0  0  0  0  0  0  0  0  0  0  0
   -2.5921   13.2297   22.2186 N   0  0  0  0  0  0  0  0  0  0  0  0
   -1.2096   12.9950   21.7881 C   0  0  0  0  0  0  0  0  0  0  0  0
   -1.2810   12.6160   20.3138 C   0  0  0  0  0  0  0  0  0  0  0  0
   -2.6797   13.0108   19.8526 C   0  0  0  0  0  0  0  0  0  0  0  0
   -3.2983   13.7511   21.0397 C   0  0  0  0  0  0  0  0  0  0  0  0
   -4.7594   13.4209   21.2872 C   0  0  0  0  0  0  0  0  0  0  0  0
   -5.4522   14.5632   21.9794 C   0  0  0  0  0  0  0  0  0  0  0  0
   -5.7853   15.6064   21.4405 O   0  0  0  0  0  0  0  0  0  0  0  0
   -5.7041   14.2235   23.2718 N   0  0  0  0  0  0  0  0  0  0  0  0
   -5.5433   12.8886   23.4750 C   0  0  0  0  0  0  0  0  0  0  0  0
   -6.0362   12.2452   24.3905 O   0  0  0  0  0  0  0  0  0  0  0  0
   -4.7702   12.2973   22.3275 C   0  0  0  0  0  0  0  0  0  0  0  0
   -2.9241   12.4971   25.1408 C   0  0  0  0  0  0  0  0  0  0  0  0
   -2.6224   11.7514   26.2381 O   0  0  0  0  0  0  0  0  0  0  0  0
   -2.5407   10.4586   25.7776 C   0  0  0  0  0  0  0  0  0  0  0  0
   -2.7432   10.3592   24.4736 N   0  0  0  0  0  0  0  0  0  0  0  0
   -3.0142   11.6514   24.0577 C   0  0  0  0  0  0  0  0  0  0  0  0
   -2.2704    9.3223   26.6173 C   0  0  0  0  0  0  0  0  0  0  0  0
   -0.9278    8.2928   26.3409 S   0  0  0  0  0  0  0  0  0  0  0  0
   -1.3221    7.3327   27.6772 C   0  0  0  0  0  0  0  0  0  0  0  0
   -0.3374    5.9829   28.0811 Cl  0  0  0  0  0  0  0  0  0  0  0  0
   -2.4486    7.7463   28.3377 C   0  0  0  0  0  0  0  0  0  0  0  0
   -3.0047    8.9051   27.7187 C   0  0  0  0  0  0  0  0  0  0  0  0
   -6.3625   15.0922   24.2229 C   0  0  0  0  0  0  0  0  0  0  0  0
   -7.7391   15.5538   23.7350 C   0  0  0  0  0  0  0  0  0  0  0  0
   -8.7552   14.4343   23.9252 C   0  0  0  0  0  0  0  0  0  0  0  0
   -9.5077   14.0473   22.6378 N   0  0  0  0  0  0  0  0  0  0  0  0
   -9.3535   15.1118   21.5562 C   0  0  0  0  0  0  0  0  0  0  0  0
   -8.8844   12.7490   22.1130 C   0  0  0  0  0  0  0  0  0  0  0  0
  -10.9847   13.7919   22.9055 C   0  0  0  0  0  0  0  0  0  0  0  0
 14 15  1  0
 15 16  1  0
 16 19  1  0
 19 20  1  0
 20 21  1  0
 21 22  1  0
 21 23  2  0
 23 24  1  0
 16 17  2  0
 17 18  1  0
  1 18  1  0
  1  2  1  0
  2  3  1  0
  3  4  1  0
  4  5  1  0
  6  5  1  0
  6  7  1  0
  7  8  1  0
  8  9  2  0
  8 10  1  0
 10 25  1  0
 25 26  1  0
 26 27  1  0
 27 28  1  0
 28 29  1  0
 28 30  1  0
 28 31  1  0
 10 11  1  0
 11 12  2  0
 13 11  1  0
 18 14  2  0
 13  1  1  0
 24 19  2  0
  6  2  1  0
 13  7  1  0
M  CHG 1  28   1
M  END
> <minimizedAffinity>
-6.85455

> <CNNscore>
0.5004529953

> <CNNaffinity>
7.0007605553

> <CNN_VS>
3.5035514832

> <CNNaffinity_variance>
0.1165310368

$$$$
