


 21 24  0  0  0  0  0  0  0  0999 V2000
  103.2872   29.8003   33.3495 C   0  0  0  0  0  0  0  0  0  0  0  0
  103.2580   29.0215   34.6705 C   0  0  0  0  0  0  0  0  0  0  0  0
  104.1711   28.1142   35.1848 C   0  0  0  0  0  0  0  0  0  0  0  0
  103.9131   27.5641   36.4468 C   0  0  0  0  0  0  0  0  0  0  0  0
  102.7618   27.9229   37.1787 C   0  0  0  0  0  0  0  0  0  0  0  0
  101.8404   28.8360   36.6629 C   0  0  0  0  0  0  0  0  0  0  0  0
  102.1109   29.3521   35.4150 C   0  0  0  0  0  0  0  0  0  0  0  0
  101.3951   30.3174   34.6089 C   0  0  0  0  0  0  0  0  0  0  0  0
  100.3997   31.0962   34.9100 N   0  0  0  0  0  0  0  0  0  0  0  0
  100.2653   31.9084   33.6424 C   0  0  0  0  0  0  0  0  0  0  0  0
  101.5490   31.6664   32.8016 C   0  0  0  0  0  0  0  0  0  0  0  0
  101.9741   30.4270   33.3767 N   0  0  0  0  0  0  0  0  0  0  0  0
  104.4180   30.8426   33.2978 C   0  0  0  0  0  0  0  0  0  0  0  0
  105.1650   31.1546   34.4515 C   0  0  0  0  0  0  0  0  0  0  0  0
  106.2093   32.0839   34.4105 C   0  0  0  0  0  0  0  0  0  0  0  0
  106.5310   32.7118   33.2115 C   0  0  0  0  0  0  0  0  0  0  0  0
  107.8169   33.8529   33.1602 Cl  0  0  0  0  0  0  0  0  0  0  0  0
  105.8208   32.4157   32.0525 C   0  0  0  0  0  0  0  0  0  0  0  0
  104.7762   31.4867   32.0941 C   0  0  0  0  0  0  0  0  0  0  0  0
  104.7658   28.5809   31.8737 C   0  0  0  0  0  0  0  0  0  0  0  0
  103.4324   28.8899   32.2529 O   0  0  0  0  0  0  0  0  0  0  0  0
 20 21  1  0
  1 21  1  0
  1 13  1  0
 13 14  2  0
 14 15  1  0
 15 16  2  0
 16 17  1  0
 16 18  1  0
 18 19  2  0
  1  2  1  0
  2  3  2  0
  3  4  1  0
  4  5  2  0
  5  6  1  0
  6  7  2  0
  7  8  1  0
  8  9  2  0
  9 10  1  0
 10 11  1  0
 11 12  1  0
 12  1  1  0
 19 13  1  0
  7  2  1  0
 12  8  1  0
M  END
> <minimizedAffinity>
-6.18524

> <CNNscore>
0.7465637922

> <CNNaffinity>
5.1699500084

> <CNN_VS>
3.8596975803

> <CNNaffinity_variance>
0.3984256983

$$$$



 21 24  0  0  0  0  0  0  0  0999 V2000
  104.3816   30.8428   35.9624 C   0  0  0  0  0  0  0  0  0  0  0  0
  103.7366   31.9354   36.8240 C   0  0  0  0  0  0  0  0  0  0  0  0
  104.2438   33.1606   37.2278 C   0  0  0  0  0  0  0  0  0  0  0  0
  103.4204   33.9930   37.9965 C   0  0  0  0  0  0  0  0  0  0  0  0
  102.1113   33.6027   38.3482 C   0  0  0  0  0  0  0  0  0  0  0  0
  101.5981   32.3693   37.9433 C   0  0  0  0  0  0  0  0  0  0  0  0
  102.4324   31.5644   37.1997 C   0  0  0  0  0  0  0  0  0  0  0  0
  102.2197   30.2599   36.6105 C   0  0  0  0  0  0  0  0  0  0  0  0
  101.1307   29.5662   36.4665 N   0  0  0  0  0  0  0  0  0  0  0  0
  101.6338   28.3888   35.6632 C   0  0  0  0  0  0  0  0  0  0  0  0
  103.0448   28.7627   35.1315 C   0  0  0  0  0  0  0  0  0  0  0  0
  103.3821   29.7904   36.0684 N   0  0  0  0  0  0  0  0  0  0  0  0
  104.5959   31.2839   34.5039 C   0  0  0  0  0  0  0  0  0  0  0  0
  105.3808   30.5115   33.6243 C   0  0  0  0  0  0  0  0  0  0  0  0
  105.5637   30.8916   32.2910 C   0  0  0  0  0  0  0  0  0  0  0  0
  104.9567   32.0475   31.8108 C   0  0  0  0  0  0  0  0  0  0  0  0
  105.1794   32.5138   30.1703 Cl  0  0  0  0  0  0  0  0  0  0  0  0
  104.1652   32.8244   32.6506 C   0  0  0  0  0  0  0  0  0  0  0  0
  103.9831   32.4442   33.9841 C   0  0  0  0  0  0  0  0  0  0  0  0
  106.7169   31.3590   36.3237 C   0  0  0  0  0  0  0  0  0  0  0  0
  105.6393   30.4571   36.5297 O   0  0  0  0  0  0  0  0  0  0  0  0
 20 21  1  0
  1 21  1  0
  1 13  1  0
 13 14  2  0
 14 15  1  0
 15 16  2  0
 16 17  1  0
 16 18  1  0
 18 19  2  0
  1  2  1  0
  2  3  2  0
  3  4  1  0
  4  5  2  0
  5  6  1  0
  6  7  2  0
  7  8  1  0
  8  9  2  0
  9 10  1  0
 10 11  1  0
 11 12  1  0
 12  1  1  0
 19 13  1  0
  7  2  1  0
 12  8  1  0
M  END
> <minimizedAffinity>
-6.02795

> <CNNscore>
0.6953017116

> <CNNaffinity>
5.2698898315

> <CNN_VS>
3.6641633511

> <CNNaffinity_variance>
0.3329443336

$$$$



 21 24  0  0  0  0  0  0  0  0999 V2000
  103.6359   30.4194   33.7159 C   0  0  0  0  0  0  0  0  0  0  0  0
  104.9110   30.8107   34.4731 C   0  0  0  0  0  0  0  0  0  0  0  0
  106.2063   30.9689   34.0055 C   0  0  0  0  0  0  0  0  0  0  0  0
  107.1914   31.3683   34.9176 C   0  0  0  0  0  0  0  0  0  0  0  0
  106.8788   31.6080   36.2720 C   0  0  0  0  0  0  0  0  0  0  0  0
  105.5754   31.4491   36.7458 C   0  0  0  0  0  0  0  0  0  0  0  0
  104.6285   31.0432   35.8317 C   0  0  0  0  0  0  0  0  0  0  0  0
  103.2081   30.8064   35.9744 C   0  0  0  0  0  0  0  0  0  0  0  0
  102.4008   31.0813   36.9545 N   0  0  0  0  0  0  0  0  0  0  0  0
  101.0692   30.6792   36.3629 C   0  0  0  0  0  0  0  0  0  0  0  0
  101.2810   30.4931   34.8352 C   0  0  0  0  0  0  0  0  0  0  0  0
  102.6969   30.2863   34.8196 N   0  0  0  0  0  0  0  0  0  0  0  0
  103.1878   31.4936   32.7094 C   0  0  0  0  0  0  0  0  0  0  0  0
  104.0845   31.9994   31.7470 C   0  0  0  0  0  0  0  0  0  0  0  0
  103.6814   32.9596   30.8134 C   0  0  0  0  0  0  0  0  0  0  0  0
  102.3703   33.4247   30.8204 C   0  0  0  0  0  0  0  0  0  0  0  0
  101.8736   34.6036   29.6707 Cl  0  0  0  0  0  0  0  0  0  0  0  0
  101.4578   32.9354   31.7495 C   0  0  0  0  0  0  0  0  0  0  0  0
  101.8616   31.9757   32.6832 C   0  0  0  0  0  0  0  0  0  0  0  0
  105.0520   29.0744   32.2888 C   0  0  0  0  0  0  0  0  0  0  0  0
  103.8426   29.1811   33.0257 O   0  0  0  0  0  0  0  0  0  0  0  0
 20 21  1  0
  1 21  1  0
  1 13  1  0
 13 14  2  0
 14 15  1  0
 15 16  2  0
 16 17  1  0
 16 18  1  0
 18 19  2  0
  1  2  1  0
  2  3  2  0
  3  4  1  0
  4  5  2  0
  5  6  1  0
  6  7  2  0
  7  8  1  0
  8  9  2  0
  9 10  1  0
 10 11  1  0
 11 12  1  0
 12  1  1  0
 19 13  1  0
  7  2  1  0
 12  8  1  0
M  END
> <minimizedAffinity>
-7.57726

> <CNNscore>
0.6668825746

> <CNNaffinity>
4.5287261009

> <CNN_VS>
3.0201284885

> <CNNaffinity_variance>
0.7599229813

$$$$



 21 24  0  0  0  0  0  0  0  0999 V2000
  103.9310   30.0007   33.3592 C   0  0  0  0  0  0  0  0  0  0  0  0
  105.1161   30.9742   33.3694 C   0  0  0  0  0  0  0  0  0  0  0  0
  105.4848   31.9317   32.4373 C   0  0  0  0  0  0  0  0  0  0  0  0
  106.6103   32.7188   32.7119 C   0  0  0  0  0  0  0  0  0  0  0  0
  107.3476   32.5492   33.9024 C   0  0  0  0  0  0  0  0  0  0  0  0
  106.9789   31.5855   34.8426 C   0  0  0  0  0  0  0  0  0  0  0  0
  105.8767   30.8163   34.5426 C   0  0  0  0  0  0  0  0  0  0  0  0
  105.2198   29.7634   35.2870 C   0  0  0  0  0  0  0  0  0  0  0  0
  105.3769   29.3746   36.5166 N   0  0  0  0  0  0  0  0  0  0  0  0
  104.2842   28.3377   36.6412 C   0  0  0  0  0  0  0  0  0  0  0  0
  103.3420   28.5119   35.4184 C   0  0  0  0  0  0  0  0  0  0  0  0
  104.2343   29.1942   34.5318 N   0  0  0  0  0  0  0  0  0  0  0  0
  102.5738   30.7138   33.4903 C   0  0  0  0  0  0  0  0  0  0  0  0
  102.4696   31.9495   34.1598 C   0  0  0  0  0  0  0  0  0  0  0  0
  101.2451   32.6167   34.2654 C   0  0  0  0  0  0  0  0  0  0  0  0
  100.1034   32.0634   33.6947 C   0  0  0  0  0  0  0  0  0  0  0  0
   98.5978   32.8850   33.8221 Cl  0  0  0  0  0  0  0  0  0  0  0  0
  100.1760   30.8512   33.0159 C   0  0  0  0  0  0  0  0  0  0  0  0
  101.4007   30.1841   32.9111 C   0  0  0  0  0  0  0  0  0  0  0  0
  105.1422   28.5114   31.8875 C   0  0  0  0  0  0  0  0  0  0  0  0
  103.9464   29.2308   32.1511 O   0  0  0  0  0  0  0  0  0  0  0  0
 20 21  1  0
  1 21  1  0
  1 13  1  0
 13 14  2  0
 14 15  1  0
 15 16  2  0
 16 17  1  0
 16 18  1  0
 18 19  2  0
  1  2  1  0
  2  3  2  0
  3  4  1  0
  4  5  2  0
  5  6  1  0
  6  7  2  0
  7  8  1  0
  8  9  2  0
  9 10  1  0
 10 11  1  0
 11 12  1  0
 12  1  1  0
 19 13  1  0
  7  2  1  0
 12  8  1  0
M  END
> <minimizedAffinity>
-7.13013

> <CNNscore>
0.6427297592

> <CNNaffinity>
4.9846711159

> <CNN_VS>
3.2037963867

> <CNNaffinity_variance>
0.2956010401

$$$$



 21 24  0  0  0  0  0  0  0  0999 V2000
  102.4721   29.0992   34.9075 C   0  0  0  0  0  0  0  0  0  0  0  0
  102.5593   28.5171   36.3238 C   0  0  0  0  0  0  0  0  0  0  0  0
  103.3244   27.4659   36.8045 C   0  0  0  0  0  0  0  0  0  0  0  0
  103.2359   27.1567   38.1677 C   0  0  0  0  0  0  0  0  0  0  0  0
  102.3980   27.8932   39.0310 C   0  0  0  0  0  0  0  0  0  0  0  0
  101.6261   28.9519   38.5496 C   0  0  0  0  0  0  0  0  0  0  0  0
  101.7214   29.2269   37.2035 C   0  0  0  0  0  0  0  0  0  0  0  0
  101.0905   30.2467   36.3935 C   0  0  0  0  0  0  0  0  0  0  0  0
  100.4016   31.2927   36.7389 N   0  0  0  0  0  0  0  0  0  0  0  0
  100.1797   31.9567   35.3993 C   0  0  0  0  0  0  0  0  0  0  0  0
  101.1458   31.2838   34.3857 C   0  0  0  0  0  0  0  0  0  0  0  0
  101.3851   30.0523   35.0741 N   0  0  0  0  0  0  0  0  0  0  0  0
  103.7750   29.7883   34.4659 C   0  0  0  0  0  0  0  0  0  0  0  0
  104.2190   29.7044   33.1309 C   0  0  0  0  0  0  0  0  0  0  0  0
  105.3899   30.3454   32.7139 C   0  0  0  0  0  0  0  0  0  0  0  0
  106.1335   31.0899   33.6239 C   0  0  0  0  0  0  0  0  0  0  0  0
  107.5723   31.8805   33.1107 Cl  0  0  0  0  0  0  0  0  0  0  0  0
  105.7148   31.2027   34.9457 C   0  0  0  0  0  0  0  0  0  0  0  0
  104.5440   30.5610   35.3623 C   0  0  0  0  0  0  0  0  0  0  0  0
  101.0204   27.2606   34.3050 C   0  0  0  0  0  0  0  0  0  0  0  0
  102.1466   28.0608   33.9757 O   0  0  0  0  0  0  0  0  0  0  0  0
 20 21  1  0
  1 21  1  0
  1 13  1  0
 13 14  2  0
 14 15  1  0
 15 16  2  0
 16 17  1  0
 16 18  1  0
 18 19  2  0
  1  2  1  0
  2  3  2  0
  3  4  1  0
  4  5  2  0
  5  6  1  0
  6  7  2  0
  7  8  1  0
  8  9  2  0
  9 10  1  0
 10 11  1  0
 11 12  1  0
 12  1  1  0
 19 13  1  0
  7  2  1  0
 12  8  1  0
M  END
> <minimizedAffinity>
-6.30479

> <CNNscore>
0.5992116928

> <CNNaffinity>
5.1199989319

> <CNN_VS>
3.0679631233

> <CNNaffinity_variance>
0.1549617797

$$$$



 21 24  0  0  0  0  0  0  0  0999 V2000
  101.9022   27.1521   37.3403 C   0  0  0  0  0  0  0  0  0  0  0  0
  103.0733   26.9623   38.3122 C   0  0  0  0  0  0  0  0  0  0  0  0
  104.2516   26.2499   38.1520 C   0  0  0  0  0  0  0  0  0  0  0  0
  105.1794   26.2673   39.2011 C   0  0  0  0  0  0  0  0  0  0  0  0
  104.9288   26.9906   40.3860 C   0  0  0  0  0  0  0  0  0  0  0  0
  103.7430   27.7084   40.5502 C   0  0  0  0  0  0  0  0  0  0  0  0
  102.8422   27.6643   39.5094 C   0  0  0  0  0  0  0  0  0  0  0  0
  101.5515   28.2966   39.3405 C   0  0  0  0  0  0  0  0  0  0  0  0
  100.9656   29.2200   40.0419 N   0  0  0  0  0  0  0  0  0  0  0  0
   99.7255   29.4766   39.2167 C   0  0  0  0  0  0  0  0  0  0  0  0
   99.9454   28.8050   37.8332 C   0  0  0  0  0  0  0  0  0  0  0  0
  100.9566   27.8581   38.1918 N   0  0  0  0  0  0  0  0  0  0  0  0
  102.2852   27.9799   36.1010 C   0  0  0  0  0  0  0  0  0  0  0  0
  103.1752   29.0675   36.2067 C   0  0  0  0  0  0  0  0  0  0  0  0
  103.5473   29.8126   35.0832 C   0  0  0  0  0  0  0  0  0  0  0  0
  103.0421   29.4769   33.8312 C   0  0  0  0  0  0  0  0  0  0  0  0
  103.5015   30.3915   32.4489 Cl  0  0  0  0  0  0  0  0  0  0  0  0
  102.1717   28.4007   33.6920 C   0  0  0  0  0  0  0  0  0  0  0  0
  101.7995   27.6562   34.8160 C   0  0  0  0  0  0  0  0  0  0  0  0
  100.1152   25.5228   37.3937 C   0  0  0  0  0  0  0  0  0  0  0  0
  101.4076   25.8744   36.9215 O   0  0  0  0  0  0  0  0  0  0  0  0
 20 21  1  0
  1 21  1  0
  1 13  1  0
 13 14  2  0
 14 15  1  0
 15 16  2  0
 16 17  1  0
 16 18  1  0
 18 19  2  0
  1  2  1  0
  2  3  2  0
  3  4  1  0
  4  5  2  0
  5  6  1  0
  6  7  2  0
  7  8  1  0
  8  9  2  0
  9 10  1  0
 10 11  1  0
 11 12  1  0
 12  1  1  0
 19 13  1  0
  7  2  1  0
 12  8  1  0
M  END
> <minimizedAffinity>
-6.19821

> <CNNscore>
0.5284583569

> <CNNaffinity>
4.9055476189

> <CNN_VS>
2.5923776627

> <CNNaffinity_variance>
0.0848955140

$$$$



 21 24  0  0  0  0  0  0  0  0999 V2000
  103.1445   31.9168   34.5686 C   0  0  0  0  0  0  0  0  0  0  0  0
  104.6342   31.9428   34.2045 C   0  0  0  0  0  0  0  0  0  0  0  0
  105.7222   31.4186   34.8850 C   0  0  0  0  0  0  0  0  0  0  0  0
  106.9900   31.5575   34.3061 C   0  0  0  0  0  0  0  0  0  0  0  0
  107.1594   32.2068   33.0654 C   0  0  0  0  0  0  0  0  0  0  0  0
  106.0657   32.7360   32.3782 C   0  0  0  0  0  0  0  0  0  0  0  0
  104.8323   32.5976   32.9751 C   0  0  0  0  0  0  0  0  0  0  0  0
  103.5130   33.0011   32.5382 C   0  0  0  0  0  0  0  0  0  0  0  0
  103.1034   33.4433   31.3873 N   0  0  0  0  0  0  0  0  0  0  0  0
  101.6121   33.5303   31.6172 C   0  0  0  0  0  0  0  0  0  0  0  0
  101.2999   32.7437   32.9200 C   0  0  0  0  0  0  0  0  0  0  0  0
  102.5968   32.7696   33.5243 N   0  0  0  0  0  0  0  0  0  0  0  0
  102.5453   30.5003   34.5237 C   0  0  0  0  0  0  0  0  0  0  0  0
  101.8196   29.9888   35.6181 C   0  0  0  0  0  0  0  0  0  0  0  0
  101.2519   28.7112   35.5792 C   0  0  0  0  0  0  0  0  0  0  0  0
  101.3928   27.9253   34.4400 C   0  0  0  0  0  0  0  0  0  0  0  0
  100.6926   26.3550   34.3908 Cl  0  0  0  0  0  0  0  0  0  0  0  0
  102.0924   28.4068   33.3381 C   0  0  0  0  0  0  0  0  0  0  0  0
  102.6603   29.6842   33.3779 C   0  0  0  0  0  0  0  0  0  0  0  0
  103.0959   33.8787   35.9826 C   0  0  0  0  0  0  0  0  0  0  0  0
  102.9553   32.4694   35.8767 O   0  0  0  0  0  0  0  0  0  0  0  0
 20 21  1  0
  1 21  1  0
  1 13  1  0
 13 14  2  0
 14 15  1  0
 15 16  2  0
 16 17  1  0
 16 18  1  0
 18 19  2  0
  1  2  1  0
  2  3  2  0
  3  4  1  0
  4  5  2  0
  5  6  1  0
  6  7  2  0
  7  8  1  0
  8  9  2  0
  9 10  1  0
 10 11  1  0
 11 12  1  0
 12  1  1  0
 19 13  1  0
  7  2  1  0
 12  8  1  0
M  END
> <minimizedAffinity>
-6.63513

> <CNNscore>
0.5023659468

> <CNNaffinity>
4.6478104591

> <CNN_VS>
2.3349018097

> <CNNaffinity_variance>
0.4700358212

$$$$



 21 24  0  0  0  0  0  0  0  0999 V2000
  102.7146   29.3856   35.9146 C   0  0  0  0  0  0  0  0  0  0  0  0
  103.0837   28.3996   37.0299 C   0  0  0  0  0  0  0  0  0  0  0  0
  104.0090   27.3675   37.0300 C   0  0  0  0  0  0  0  0  0  0  0  0
  104.1721   26.6297   38.2093 C   0  0  0  0  0  0  0  0  0  0  0  0
  103.4227   26.9272   39.3668 C   0  0  0  0  0  0  0  0  0  0  0  0
  102.4899   27.9657   39.3693 C   0  0  0  0  0  0  0  0  0  0  0  0
  102.3394   28.6669   38.1936 C   0  0  0  0  0  0  0  0  0  0  0  0
  101.4952   29.7936   37.8589 C   0  0  0  0  0  0  0  0  0  0  0  0
  100.7798   30.5674   38.6187 N   0  0  0  0  0  0  0  0  0  0  0  0
  100.2834   31.5869   37.6193 C   0  0  0  0  0  0  0  0  0  0  0  0
  101.1285   31.4149   36.3271 C   0  0  0  0  0  0  0  0  0  0  0  0
  101.5874   30.0741   36.5254 N   0  0  0  0  0  0  0  0  0  0  0  0
  103.8603   30.3544   35.5732 C   0  0  0  0  0  0  0  0  0  0  0  0
  104.0800   30.7727   34.2454 C   0  0  0  0  0  0  0  0  0  0  0  0
  105.1044   31.6701   33.9274 C   0  0  0  0  0  0  0  0  0  0  0  0
  105.9223   32.1725   34.9343 C   0  0  0  0  0  0  0  0  0  0  0  0
  107.1806   33.2782   34.5438 Cl  0  0  0  0  0  0  0  0  0  0  0  0
  105.7227   31.7889   36.2565 C   0  0  0  0  0  0  0  0  0  0  0  0
  104.6985   30.8910   36.5739 C   0  0  0  0  0  0  0  0  0  0  0  0
  101.1872   27.8397   34.8525 C   0  0  0  0  0  0  0  0  0  0  0  0
  102.3372   28.6648   34.7354 O   0  0  0  0  0  0  0  0  0  0  0  0
 20 21  1  0
  1 21  1  0
  1 13  1  0
 13 14  2  0
 14 15  1  0
 15 16  2  0
 16 17  1  0
 16 18  1  0
 18 19  2  0
  1  2  1  0
  2  3  2  0
  3  4  1  0
  4  5  2  0
  5  6  1  0
  6  7  2  0
  7  8  1  0
  8  9  2  0
  9 10  1  0
 10 11  1  0
 11 12  1  0
 12  1  1  0
 19 13  1  0
  7  2  1  0
 12  8  1  0
M  END
> <minimizedAffinity>
-6.09787

> <CNNscore>
0.4945988953

> <CNNaffinity>
4.9416851997

> <CNN_VS>
2.4441521168

> <CNNaffinity_variance>
0.0045883902

$$$$



 21 24  0  0  0  0  0  0  0  0999 V2000
  101.6586   30.8624   34.5084 C   0  0  0  0  0  0  0  0  0  0  0  0
  101.4353   29.3721   34.7936 C   0  0  0  0  0  0  0  0  0  0  0  0
  101.4511   28.2915   33.9254 C   0  0  0  0  0  0  0  0  0  0  0  0
  101.2448   27.0138   34.4608 C   0  0  0  0  0  0  0  0  0  0  0  0
  101.0312   26.8264   35.8425 C   0  0  0  0  0  0  0  0  0  0  0  0
  101.0142   27.9128   36.7189 C   0  0  0  0  0  0  0  0  0  0  0  0
  101.2066   29.1591   36.1654 C   0  0  0  0  0  0  0  0  0  0  0  0
  101.2693   30.4709   36.7732 C   0  0  0  0  0  0  0  0  0  0  0  0
  101.3404   30.8198   38.0226 N   0  0  0  0  0  0  0  0  0  0  0  0
  101.5058   32.3175   37.9028 C   0  0  0  0  0  0  0  0  0  0  0  0
  101.8551   32.6255   36.4208 C   0  0  0  0  0  0  0  0  0  0  0  0
  101.3473   31.4355   35.8094 N   0  0  0  0  0  0  0  0  0  0  0  0
  103.1013   31.1760   34.0752 C   0  0  0  0  0  0  0  0  0  0  0  0
  103.3599   32.0967   33.0399 C   0  0  0  0  0  0  0  0  0  0  0  0
  104.6679   32.4056   32.6534 C   0  0  0  0  0  0  0  0  0  0  0  0
  105.7420   31.8051   33.3023 C   0  0  0  0  0  0  0  0  0  0  0  0
  107.3508   32.1867   32.8289 Cl  0  0  0  0  0  0  0  0  0  0  0  0
  105.5200   30.9019   34.3368 C   0  0  0  0  0  0  0  0  0  0  0  0
  104.2116   30.5929   34.7226 C   0  0  0  0  0  0  0  0  0  0  0  0
   99.7954   32.2739   33.8863 C   0  0  0  0  0  0  0  0  0  0  0  0
  100.7523   31.3024   33.4898 O   0  0  0  0  0  0  0  0  0  0  0  0
 20 21  1  0
  1 21  1  0
  1 13  1  0
 13 14  2  0
 14 15  1  0
 15 16  2  0
 16 17  1  0
 16 18  1  0
 18 19  2  0
  1  2  1  0
  2  3  2  0
  3  4  1  0
  4  5  2  0
  5  6  1  0
  6  7  2  0
  7  8  1  0
  8  9  2  0
  9 10  1  0
 10 11  1  0
 11 12  1  0
 12  1  1  0
 19 13  1  0
  7  2  1  0
 12  8  1  0
M  END
> <minimizedAffinity>
-6.05280

> <CNNscore>
0.4142765999

> <CNNaffinity>
4.9288687706

> <CNN_VS>
2.0419149399

> <CNNaffinity_variance>
0.0433329530

$$$$
