


 41 44  0  0  0  0  0  0  0  0999 V2000
   45.7589   11.8769    1.0191 C   0  0  0  0  0  0  0  0  0  0  0  0
   44.7125   11.1057    0.5108 C   0  0  0  0  0  0  0  0  0  0  0  0
   44.9513    9.7960    0.1083 C   0  0  0  0  0  0  0  0  0  0  0  0
   46.2312    9.2448    0.2250 C   0  0  0  0  0  0  0  0  0  0  0  0
   47.2919    9.9679    0.7708 C   0  0  0  0  0  0  0  0  0  0  0  0
   47.0371   11.3048    1.1261 C   0  0  0  0  0  0  0  0  0  0  0  0
   45.5685   15.3325    2.5163 C   0  0  0  0  0  0  0  0  0  0  0  0
   44.6919   15.6097    1.4807 C   0  0  0  0  0  0  0  0  0  0  0  0
   44.5423   14.2591    0.4264 S   0  0  0  0  0  0  0  0  0  0  0  0
   45.5236   13.2652    1.4181 C   0  0  0  0  0  0  0  0  0  0  0  0
   45.9831   13.9676    2.5123 C   0  0  0  0  0  0  0  0  0  0  0  0
   47.0124   13.2049    3.9137 Br  0  0  0  0  0  0  0  0  0  0  0  0
   43.9370   16.8000    1.1611 C   0  0  0  0  0  0  0  0  0  0  0  0
   43.8099   17.8189    1.8282 O   0  0  0  0  0  0  0  0  0  0  0  0
   43.3602   16.7347   -0.0597 O   0  0  0  0  0  0  0  0  0  0  0  0
   43.4504   15.9604   -0.5796 H   0  0  0  0  0  0  0  0  0  0  0  0
   45.8706   16.2551    3.4654 O   0  0  0  0  0  0  0  0  0  0  0  0
   47.1186   16.9020    3.2425 C   0  0  0  0  0  0  0  0  0  0  0  0
   49.0600   17.4944    4.6547 O   0  0  0  0  0  0  0  0  0  0  0  0
   47.8574   17.4063    4.4752 C   0  0  0  0  0  0  0  0  0  0  0  0
   47.0009   17.7745    5.4554 O   0  0  0  0  0  0  0  0  0  0  0  0
   46.0763   17.7074    5.3192 H   0  0  0  0  0  0  0  0  0  0  0  0
   48.5984    9.4990    0.8776 N   0  0  0  0  0  0  0  0  0  0  0  0
   49.1886    9.6461    0.1035 H   0  0  0  0  0  0  0  0  0  0  0  0
   49.1808    8.8060    2.0340 C   0  0  0  0  0  0  0  0  0  0  0  0
   50.5172    8.1202    1.7293 C   0  0  0  0  0  0  0  0  0  0  0  0
   50.5691    6.6689    2.1936 C   0  0  0  0  0  0  0  0  0  0  0  0
   50.0521    6.5071    3.5636 N   0  0  0  0  0  0  0  0  0  0  0  0
   48.8791    7.2945    3.9796 C   0  0  0  0  0  0  0  0  0  0  0  0
   48.1838    7.9253    2.7806 C   0  0  0  0  0  0  0  0  0  0  0  0
   51.0162    5.7828    4.7490 S   0  0  0  0  0  0  0  0  0  0  0  0
   52.1797    6.6280    4.9250 O   0  0  0  0  0  0  0  0  0  0  0  0
   50.1435    5.4502    5.8562 O   0  0  0  0  0  0  0  0  0  0  0  0
   51.5245    4.2658    3.9193 C   0  0  0  0  0  0  0  0  0  0  0  0
   50.4631    3.2131    4.1155 C   0  0  0  0  0  0  0  0  0  0  0  0
   49.2822    3.2361    3.3563 C   0  0  0  0  0  0  0  0  0  0  0  0
   48.3111    2.2469    3.5260 C   0  0  0  0  0  0  0  0  0  0  0  0
   48.5147    1.2300    4.4560 C   0  0  0  0  0  0  0  0  0  0  0  0
   47.2022   -0.1117    4.6825 Br  0  0  0  0  0  0  0  0  0  0  0  0
   49.6806    1.1921    5.2178 C   0  0  0  0  0  0  0  0  0  0  0  0
   50.6526    2.1806    5.0474 C   0  0  0  0  0  0  0  0  0  0  0  0
 19 20  2  0
 20 21  1  0
 20 18  1  0
 18 17  1  0
 17  7  1  0
  7  8  2  0
  8 13  1  0
 13 14  2  0
 13 15  1  0
  8  9  1  0
  9 10  1  0
 10  1  1  0
  1  2  2  0
  2  3  1  0
  3  4  2  0
  4  5  1  0
  5 23  1  0
 23 25  1  0
 25 26  1  0
 26 27  1  0
 27 28  1  0
 28 31  1  0
 31 32  2  0
 31 33  2  0
 31 34  1  0
 34 35  1  0
 35 36  2  0
 36 37  1  0
 37 38  2  0
 38 39  1  0
 38 40  1  0
 40 41  2  0
 28 29  1  0
 29 30  1  0
  5  6  2  0
 10 11  2  0
 11 12  1  0
 11  7  1  0
  6  1  1  0
 30 25  1  0
 41 35  1  0
 21 22  1  0
 15 16  1  0
 23 24  1  0
M  END
> <minimizedAffinity>
-8.66754

> <CNNscore>
0.9245644212

> <CNNaffinity>
7.0785431862

> <CNN_VS>
6.5445690155

> <CNNaffinity_variance>
0.0088005206

$$$$



 41 44  0  0  0  0  0  0  0  0999 V2000
   46.1683   11.4503    0.8539 C   0  0  0  0  0  0  0  0  0  0  0  0
   45.1472   10.9202    0.0636 C   0  0  0  0  0  0  0  0  0  0  0  0
   45.3848    9.7831   -0.7013 C   0  0  0  0  0  0  0  0  0  0  0  0
   46.6368    9.1610   -0.6696 C   0  0  0  0  0  0  0  0  0  0  0  0
   47.6678    9.6333    0.1427 C   0  0  0  0  0  0  0  0  0  0  0  0
   47.4189   10.8113    0.8698 C   0  0  0  0  0  0  0  0  0  0  0  0
   45.1996   14.7547    2.3908 C   0  0  0  0  0  0  0  0  0  0  0  0
   45.9775   14.3546    3.4643 C   0  0  0  0  0  0  0  0  0  0  0  0
   46.5844   12.7637    3.2221 S   0  0  0  0  0  0  0  0  0  0  0  0
   45.9365   12.6631    1.6396 C   0  0  0  0  0  0  0  0  0  0  0  0
   45.2405   13.8106    1.3222 C   0  0  0  0  0  0  0  0  0  0  0  0
   44.4597   14.1491   -0.3751 Br  0  0  0  0  0  0  0  0  0  0  0  0
   46.3255   15.0277    4.6950 C   0  0  0  0  0  0  0  0  0  0  0  0
   45.6602   15.1287    5.7180 O   0  0  0  0  0  0  0  0  0  0  0  0
   47.5712   15.5514    4.6640 O   0  0  0  0  0  0  0  0  0  0  0  0
   48.0901   15.4805    3.8869 H   0  0  0  0  0  0  0  0  0  0  0  0
   44.5878   15.9663    2.3616 O   0  0  0  0  0  0  0  0  0  0  0  0
   45.5015   17.0550    2.2864 C   0  0  0  0  0  0  0  0  0  0  0  0
   46.6286   18.5808    3.8726 O   0  0  0  0  0  0  0  0  0  0  0  0
   45.6795   17.8870    3.5497 C   0  0  0  0  0  0  0  0  0  0  0  0
   44.6106   17.7820    4.3720 O   0  0  0  0  0  0  0  0  0  0  0  0
   43.8803   17.2493    4.1254 H   0  0  0  0  0  0  0  0  0  0  0  0
   48.9492    9.0912    0.1918 N   0  0  0  0  0  0  0  0  0  0  0  0
   49.6082    9.4484   -0.4465 H   0  0  0  0  0  0  0  0  0  0  0  0
   49.4125    8.0379    1.1042 C   0  0  0  0  0  0  0  0  0  0  0  0
   48.6612    8.0089    2.4398 C   0  0  0  0  0  0  0  0  0  0  0  0
   49.5868    7.9717    3.6508 C   0  0  0  0  0  0  0  0  0  0  0  0
   50.6683    6.9841    3.4909 N   0  0  0  0  0  0  0  0  0  0  0  0
   51.2991    6.8268    2.1695 C   0  0  0  0  0  0  0  0  0  0  0  0
   50.9305    7.9762    1.2410 C   0  0  0  0  0  0  0  0  0  0  0  0
   50.8843    5.7743    4.6524 S   0  0  0  0  0  0  0  0  0  0  0  0
   52.0781    6.1121    5.4006 O   0  0  0  0  0  0  0  0  0  0  0  0
   49.6056    5.5848    5.3058 O   0  0  0  0  0  0  0  0  0  0  0  0
   51.2378    4.3426    3.6163 C   0  0  0  0  0  0  0  0  0  0  0  0
   50.2452    3.2502    3.9236 C   0  0  0  0  0  0  0  0  0  0  0  0
   50.3998    2.4405    5.0603 C   0  0  0  0  0  0  0  0  0  0  0  0
   49.4665    1.4438    5.3529 C   0  0  0  0  0  0  0  0  0  0  0  0
   48.3740    1.2503    4.5105 C   0  0  0  0  0  0  0  0  0  0  0  0
   47.1080   -0.0959    4.9091 Br  0  0  0  0  0  0  0  0  0  0  0  0
   48.2053    2.0446    3.3784 C   0  0  0  0  0  0  0  0  0  0  0  0
   49.1380    3.0424    3.0862 C   0  0  0  0  0  0  0  0  0  0  0  0
 19 20  2  0
 20 21  1  0
 20 18  1  0
 18 17  1  0
 17  7  1  0
  7  8  2  0
  8 13  1  0
 13 14  2  0
 13 15  1  0
  8  9  1  0
  9 10  1  0
 10  1  1  0
  1  2  2  0
  2  3  1  0
  3  4  2  0
  4  5  1  0
  5 23  1  0
 23 25  1  0
 25 26  1  0
 26 27  1  0
 27 28  1  0
 28 31  1  0
 31 32  2  0
 31 33  2  0
 31 34  1  0
 34 35  1  0
 35 36  2  0
 36 37  1  0
 37 38  2  0
 38 39  1  0
 38 40  1  0
 40 41  2  0
 28 29  1  0
 29 30  1  0
  5  6  2  0
 10 11  2  0
 11 12  1  0
 11  7  1  0
  6  1  1  0
 30 25  1  0
 41 35  1  0
 21 22  1  0
 15 16  1  0
 23 24  1  0
M  END
> <minimizedAffinity>
-7.90121

> <CNNscore>
0.8302388787

> <CNNaffinity>
7.0364174843

> <CNN_VS>
5.8419075012

> <CNNaffinity_variance>
0.0149436062

$$$$



 41 44  0  0  0  0  0  0  0  0999 V2000
   45.6194   12.2799    0.2288 C   0  0  0  0  0  0  0  0  0  0  0  0
   44.6328   11.2930    0.2546 C   0  0  0  0  0  0  0  0  0  0  0  0
   44.7528   10.1742   -0.5631 C   0  0  0  0  0  0  0  0  0  0  0  0
   45.8644   10.0277   -1.3987 C   0  0  0  0  0  0  0  0  0  0  0  0
   46.8936   10.9691   -1.4187 C   0  0  0  0  0  0  0  0  0  0  0  0
   46.7267   12.1142   -0.6192 C   0  0  0  0  0  0  0  0  0  0  0  0
   45.7131   15.0769    2.7561 C   0  0  0  0  0  0  0  0  0  0  0  0
   44.7973   15.7038    1.9279 C   0  0  0  0  0  0  0  0  0  0  0  0
   44.5111   14.7694    0.5126 S   0  0  0  0  0  0  0  0  0  0  0  0
   45.4874   13.4744    1.0640 C   0  0  0  0  0  0  0  0  0  0  0  0
   46.0473   13.7712    2.2889 C   0  0  0  0  0  0  0  0  0  0  0  0
   47.1076   12.5616    3.2978 Br  0  0  0  0  0  0  0  0  0  0  0  0
   44.0958   16.9607    2.0580 C   0  0  0  0  0  0  0  0  0  0  0  0
   43.0879   17.3307    1.4694 O   0  0  0  0  0  0  0  0  0  0  0  0
   44.6455   17.7654    2.9948 O   0  0  0  0  0  0  0  0  0  0  0  0
   45.4168   17.4934    3.4520 H   0  0  0  0  0  0  0  0  0  0  0  0
   46.1207   15.6343    3.9251 O   0  0  0  0  0  0  0  0  0  0  0  0
   47.3813   16.2877    3.8260 C   0  0  0  0  0  0  0  0  0  0  0  0
   48.6803   18.0178    5.0234 O   0  0  0  0  0  0  0  0  0  0  0  0
   47.6330   17.4380    4.7919 C   0  0  0  0  0  0  0  0  0  0  0  0
   46.5047   17.7978    5.4457 O   0  0  0  0  0  0  0  0  0  0  0  0
   45.6990   17.3534    5.2690 H   0  0  0  0  0  0  0  0  0  0  0  0
   48.0055   10.9096   -2.2543 N   0  0  0  0  0  0  0  0  0  0  0  0
   47.8363   10.7356   -3.2085 H   0  0  0  0  0  0  0  0  0  0  0  0
   49.4066   11.0813   -1.8493 C   0  0  0  0  0  0  0  0  0  0  0  0
   49.9217   12.5154   -2.0140 C   0  0  0  0  0  0  0  0  0  0  0  0
   51.2496   12.5967   -2.7587 C   0  0  0  0  0  0  0  0  0  0  0  0
   52.2234   11.6083   -2.2636 N   0  0  0  0  0  0  0  0  0  0  0  0
   51.7493   10.2625   -1.8991 C   0  0  0  0  0  0  0  0  0  0  0  0
   50.3385   10.0149   -2.4163 C   0  0  0  0  0  0  0  0  0  0  0  0
   53.7410   12.1187   -1.7196 S   0  0  0  0  0  0  0  0  0  0  0  0
   54.3807   10.9718   -1.1077 O   0  0  0  0  0  0  0  0  0  0  0  0
   54.3590   12.8408   -2.8126 O   0  0  0  0  0  0  0  0  0  0  0  0
   53.2832   13.2845   -0.4236 C   0  0  0  0  0  0  0  0  0  0  0  0
   53.8610   14.6389   -0.7474 C   0  0  0  0  0  0  0  0  0  0  0  0
   55.2137   14.9193   -0.4965 C   0  0  0  0  0  0  0  0  0  0  0  0
   55.7501   16.1681   -0.8176 C   0  0  0  0  0  0  0  0  0  0  0  0
   54.9371   17.1435   -1.3904 C   0  0  0  0  0  0  0  0  0  0  0  0
   55.6643   18.8325   -1.8294 Br  0  0  0  0  0  0  0  0  0  0  0  0
   53.5927   16.8821   -1.6460 C   0  0  0  0  0  0  0  0  0  0  0  0
   53.0562   15.6328   -1.3260 C   0  0  0  0  0  0  0  0  0  0  0  0
 19 20  2  0
 20 21  1  0
 20 18  1  0
 18 17  1  0
 17  7  1  0
  7  8  2  0
  8 13  1  0
 13 14  2  0
 13 15  1  0
  8  9  1  0
  9 10  1  0
 10  1  1  0
  1  2  2  0
  2  3  1  0
  3  4  2  0
  4  5  1  0
  5 23  1  0
 23 25  1  0
 25 26  1  0
 26 27  1  0
 27 28  1  0
 28 31  1  0
 31 32  2  0
 31 33  2  0
 31 34  1  0
 34 35  1  0
 35 36  2  0
 36 37  1  0
 37 38  2  0
 38 39  1  0
 38 40  1  0
 40 41  2  0
 28 29  1  0
 29 30  1  0
  5  6  2  0
 10 11  2  0
 11 12  1  0
 11  7  1  0
  6  1  1  0
 30 25  1  0
 41 35  1  0
 21 22  1  0
 15 16  1  0
 23 24  1  0
M  END
> <minimizedAffinity>
-7.51783

> <CNNscore>
0.7891855836

> <CNNaffinity>
6.9987311363

> <CNN_VS>
5.5232977867

> <CNNaffinity_variance>
0.0005533980

$$$$



 41 44  0  0  0  0  0  0  0  0999 V2000
   45.7541   11.8262    0.7817 C   0  0  0  0  0  0  0  0  0  0  0  0
   44.6927   11.0311    0.3466 C   0  0  0  0  0  0  0  0  0  0  0  0
   44.9390    9.7440   -0.1194 C   0  0  0  0  0  0  0  0  0  0  0  0
   46.2428    9.2388   -0.1392 C   0  0  0  0  0  0  0  0  0  0  0  0
   47.3236    9.9852    0.3304 C   0  0  0  0  0  0  0  0  0  0  0  0
   47.0561   11.3003    0.7517 C   0  0  0  0  0  0  0  0  0  0  0  0
   45.5286   15.2010    2.4487 C   0  0  0  0  0  0  0  0  0  0  0  0
   44.6697   15.5290    1.4131 C   0  0  0  0  0  0  0  0  0  0  0  0
   44.5421   14.2334    0.2892 S   0  0  0  0  0  0  0  0  0  0  0  0
   45.5083   13.1920    1.2464 C   0  0  0  0  0  0  0  0  0  0  0  0
   45.9466   13.8388    2.3828 C   0  0  0  0  0  0  0  0  0  0  0  0
   46.9529   13.0075    3.7618 Br  0  0  0  0  0  0  0  0  0  0  0  0
   43.9176   16.7328    1.1410 C   0  0  0  0  0  0  0  0  0  0  0  0
   43.8558   17.7557    1.8111 O   0  0  0  0  0  0  0  0  0  0  0  0
   43.2576   16.6753   -0.0373 O   0  0  0  0  0  0  0  0  0  0  0  0
   43.2972   15.8980   -0.5590 H   0  0  0  0  0  0  0  0  0  0  0  0
   45.8115   16.0747    3.4487 O   0  0  0  0  0  0  0  0  0  0  0  0
   47.0790   16.7053    3.3013 C   0  0  0  0  0  0  0  0  0  0  0  0
   47.0353   17.9142    5.4579 O   0  0  0  0  0  0  0  0  0  0  0  0
   47.6423   17.4040    4.5318 C   0  0  0  0  0  0  0  0  0  0  0  0
   48.9947   17.4301    4.5166 O   0  0  0  0  0  0  0  0  0  0  0  0
   49.4628   17.0384    3.8057 H   0  0  0  0  0  0  0  0  0  0  0  0
   48.6501    9.5635    0.3010 N   0  0  0  0  0  0  0  0  0  0  0  0
   49.1019    9.5767   -0.5736 H   0  0  0  0  0  0  0  0  0  0  0  0
   49.4401    9.1007    1.4492 C   0  0  0  0  0  0  0  0  0  0  0  0
   50.7108    8.3405    1.0534 C   0  0  0  0  0  0  0  0  0  0  0  0
   50.8667    7.0088    1.7792 C   0  0  0  0  0  0  0  0  0  0  0  0
   50.6053    7.1318    3.2238 N   0  0  0  0  0  0  0  0  0  0  0  0
   49.5138    8.0101    3.6777 C   0  0  0  0  0  0  0  0  0  0  0  0
   48.6060    8.4059    2.5208 C   0  0  0  0  0  0  0  0  0  0  0  0
   51.7766    6.6361    4.3382 S   0  0  0  0  0  0  0  0  0  0  0  0
   52.4542    7.8298    4.8015 O   0  0  0  0  0  0  0  0  0  0  0  0
   51.1246    5.7265    5.2577 O   0  0  0  0  0  0  0  0  0  0  0  0
   52.9029    5.7051    3.2833 C   0  0  0  0  0  0  0  0  0  0  0  0
   52.7274    4.2313    3.5484 C   0  0  0  0  0  0  0  0  0  0  0  0
   53.2989    3.6345    4.6836 C   0  0  0  0  0  0  0  0  0  0  0  0
   53.1161    2.2733    4.9368 C   0  0  0  0  0  0  0  0  0  0  0  0
   52.3618    1.5012    4.0562 C   0  0  0  0  0  0  0  0  0  0  0  0
   52.1104   -0.3405    4.4014 Br  0  0  0  0  0  0  0  0  0  0  0  0
   51.7878    2.0772    2.9250 C   0  0  0  0  0  0  0  0  0  0  0  0
   51.9695    3.4388    2.6721 C   0  0  0  0  0  0  0  0  0  0  0  0
 19 20  2  0
 20 21  1  0
 20 18  1  0
 18 17  1  0
 17  7  1  0
  7  8  2  0
  8 13  1  0
 13 14  2  0
 13 15  1  0
  8  9  1  0
  9 10  1  0
 10  1  1  0
  1  2  2  0
  2  3  1  0
  3  4  2  0
  4  5  1  0
  5 23  1  0
 23 25  1  0
 25 26  1  0
 26 27  1  0
 27 28  1  0
 28 31  1  0
 31 32  2  0
 31 33  2  0
 31 34  1  0
 34 35  1  0
 35 36  2  0
 36 37  1  0
 37 38  2  0
 38 39  1  0
 38 40  1  0
 40 41  2  0
 28 29  1  0
 29 30  1  0
  5  6  2  0
 10 11  2  0
 11 12  1  0
 11  7  1  0
  6  1  1  0
 30 25  1  0
 41 35  1  0
 21 22  1  0
 15 16  1  0
 23 24  1  0
M  END
> <minimizedAffinity>
-8.70676

> <CNNscore>
0.7827973962

> <CNNaffinity>
6.8104405403

> <CNN_VS>
5.3311953545

> <CNNaffinity_variance>
0.0143577754

$$$$



 41 44  0  0  0  0  0  0  0  0999 V2000
   44.7537   12.9922    0.2197 C   0  0  0  0  0  0  0  0  0  0  0  0
   44.7871   11.6419    0.5711 C   0  0  0  0  0  0  0  0  0  0  0  0
   44.4971   10.6720   -0.3827 C   0  0  0  0  0  0  0  0  0  0  0  0
   44.1875   11.0439   -1.6947 C   0  0  0  0  0  0  0  0  0  0  0  0
   44.1892   12.3799   -2.0960 C   0  0  0  0  0  0  0  0  0  0  0  0
   44.4384   13.3443   -1.1030 C   0  0  0  0  0  0  0  0  0  0  0  0
   45.8991   15.2328    3.0281 C   0  0  0  0  0  0  0  0  0  0  0  0
   44.9773   16.1383    2.5301 C   0  0  0  0  0  0  0  0  0  0  0  0
   44.2356   15.5342    1.1007 S   0  0  0  0  0  0  0  0  0  0  0  0
   45.0288   14.0210    1.2236 C   0  0  0  0  0  0  0  0  0  0  0  0
   45.8699   13.9969    2.3163 C   0  0  0  0  0  0  0  0  0  0  0  0
   46.8523   12.4702    2.8723 Br  0  0  0  0  0  0  0  0  0  0  0  0
   44.5768   17.4468    2.9948 C   0  0  0  0  0  0  0  0  0  0  0  0
   44.2665   18.4259    2.3281 O   0  0  0  0  0  0  0  0  0  0  0  0
   44.5136   17.5201    4.3431 O   0  0  0  0  0  0  0  0  0  0  0  0
   44.7485   16.7776    4.8642 H   0  0  0  0  0  0  0  0  0  0  0  0
   46.6339   15.4962    4.1389 O   0  0  0  0  0  0  0  0  0  0  0  0
   47.7200   16.3835    3.8961 C   0  0  0  0  0  0  0  0  0  0  0  0
   48.7214   18.4300    4.8572 O   0  0  0  0  0  0  0  0  0  0  0  0
   47.8504   17.5773    4.8330 C   0  0  0  0  0  0  0  0  0  0  0  0
   46.8387   17.6216    5.7299 O   0  0  0  0  0  0  0  0  0  0  0  0
   46.1684   16.9670    5.7127 H   0  0  0  0  0  0  0  0  0  0  0  0
   43.8496   12.8245   -3.3709 N   0  0  0  0  0  0  0  0  0  0  0  0
   43.6961   12.1348   -4.0564 H   0  0  0  0  0  0  0  0  0  0  0  0
   43.6983   14.2234   -3.7913 C   0  0  0  0  0  0  0  0  0  0  0  0
   44.8752   15.1171   -3.3847 C   0  0  0  0  0  0  0  0  0  0  0  0
   44.4428   16.4035   -2.6899 C   0  0  0  0  0  0  0  0  0  0  0  0
   43.3344   17.0687   -3.3966 N   0  0  0  0  0  0  0  0  0  0  0  0
   42.2669   16.2420   -3.9847 C   0  0  0  0  0  0  0  0  0  0  0  0
   42.3282   14.8109   -3.4677 C   0  0  0  0  0  0  0  0  0  0  0  0
   43.4960   18.6762   -3.8954 S   0  0  0  0  0  0  0  0  0  0  0  0
   42.1730   19.1446   -4.2548 O   0  0  0  0  0  0  0  0  0  0  0  0
   44.2947   19.3501   -2.8923 O   0  0  0  0  0  0  0  0  0  0  0  0
   44.4705   18.4880   -5.3997 C   0  0  0  0  0  0  0  0  0  0  0  0
   45.8665   19.0021   -5.1546 C   0  0  0  0  0  0  0  0  0  0  0  0
   46.3969   20.0376   -5.9406 C   0  0  0  0  0  0  0  0  0  0  0  0
   47.6825   20.5255   -5.6965 C   0  0  0  0  0  0  0  0  0  0  0  0
   48.4450   19.9805   -4.6660 C   0  0  0  0  0  0  0  0  0  0  0  0
   50.1836   20.6441   -4.3324 Br  0  0  0  0  0  0  0  0  0  0  0  0
   47.9342   18.9524   -3.8765 C   0  0  0  0  0  0  0  0  0  0  0  0
   46.6481   18.4651   -4.1197 C   0  0  0  0  0  0  0  0  0  0  0  0
 19 20  2  0
 20 21  1  0
 20 18  1  0
 18 17  1  0
 17  7  1  0
  7  8  2  0
  8 13  1  0
 13 14  2  0
 13 15  1  0
  8  9  1  0
  9 10  1  0
 10  1  1  0
  1  2  2  0
  2  3  1  0
  3  4  2  0
  4  5  1  0
  5 23  1  0
 23 25  1  0
 25 26  1  0
 26 27  1  0
 27 28  1  0
 28 31  1  0
 31 32  2  0
 31 33  2  0
 31 34  1  0
 34 35  1  0
 35 36  2  0
 36 37  1  0
 37 38  2  0
 38 39  1  0
 38 40  1  0
 40 41  2  0
 28 29  1  0
 29 30  1  0
  5  6  2  0
 10 11  2  0
 11 12  1  0
 11  7  1  0
  6  1  1  0
 30 25  1  0
 41 35  1  0
 21 22  1  0
 15 16  1  0
 23 24  1  0
M  END
> <minimizedAffinity>
-8.93882

> <CNNscore>
0.7437193990

> <CNNaffinity>
6.7482914925

> <CNN_VS>
5.0188350677

> <CNNaffinity_variance>
0.1157253608

$$$$



 41 44  0  0  0  0  0  0  0  0999 V2000
   45.3527   11.7991   -0.0377 C   0  0  0  0  0  0  0  0  0  0  0  0
   44.3112   11.4652   -0.9048 C   0  0  0  0  0  0  0  0  0  0  0  0
   44.3729   10.2839   -1.6365 C   0  0  0  0  0  0  0  0  0  0  0  0
   45.4660    9.4234   -1.4953 C   0  0  0  0  0  0  0  0  0  0  0  0
   46.5038    9.6993   -0.6049 C   0  0  0  0  0  0  0  0  0  0  0  0
   46.4423   10.9219    0.0879 C   0  0  0  0  0  0  0  0  0  0  0  0
   45.6608   14.7482    2.2920 C   0  0  0  0  0  0  0  0  0  0  0  0
   44.7824   15.3790    1.4269 C   0  0  0  0  0  0  0  0  0  0  0  0
   44.4200   14.3725    0.0801 S   0  0  0  0  0  0  0  0  0  0  0  0
   45.3104   13.0539    0.7145 C   0  0  0  0  0  0  0  0  0  0  0  0
   45.9005   13.3938    1.9137 C   0  0  0  0  0  0  0  0  0  0  0  0
   46.8849   12.1855    2.9982 Br  0  0  0  0  0  0  0  0  0  0  0  0
   44.1698   16.6871    1.4739 C   0  0  0  0  0  0  0  0  0  0  0  0
   44.5261   17.7118    0.9063 O   0  0  0  0  0  0  0  0  0  0  0  0
   43.0414   16.7036    2.2181 O   0  0  0  0  0  0  0  0  0  0  0  0
   42.7585   15.9258    2.6572 H   0  0  0  0  0  0  0  0  0  0  0  0
   46.1162   15.3543    3.4182 O   0  0  0  0  0  0  0  0  0  0  0  0
   47.2485   16.1859    3.1895 C   0  0  0  0  0  0  0  0  0  0  0  0
   48.8514   17.4883    4.5492 O   0  0  0  0  0  0  0  0  0  0  0  0
   47.7463   17.0042    4.3737 C   0  0  0  0  0  0  0  0  0  0  0  0
   46.7849   17.1612    5.3122 O   0  0  0  0  0  0  0  0  0  0  0  0
   45.9350   16.7898    5.1790 H   0  0  0  0  0  0  0  0  0  0  0  0
   47.6406    8.9117   -0.4446 N   0  0  0  0  0  0  0  0  0  0  0  0
   48.3334    8.9835   -1.1404 H   0  0  0  0  0  0  0  0  0  0  0  0
   47.9055    7.9840    0.6625 C   0  0  0  0  0  0  0  0  0  0  0  0
   48.2363    8.6850    1.9847 C   0  0  0  0  0  0  0  0  0  0  0  0
   49.4966    8.1470    2.6529 C   0  0  0  0  0  0  0  0  0  0  0  0
   49.5277    6.6742    2.6717 N   0  0  0  0  0  0  0  0  0  0  0  0
   49.0343    5.9366    1.4964 C   0  0  0  0  0  0  0  0  0  0  0  0
   48.8675    6.8584    0.2957 C   0  0  0  0  0  0  0  0  0  0  0  0
   49.7098    5.8529    4.1385 S   0  0  0  0  0  0  0  0  0  0  0  0
   48.7705    6.4390    5.0729 O   0  0  0  0  0  0  0  0  0  0  0  0
   49.6953    4.4371    3.8330 O   0  0  0  0  0  0  0  0  0  0  0  0
   51.3786    6.3385    4.6158 C   0  0  0  0  0  0  0  0  0  0  0  0
   52.3661    5.3584    4.0350 C   0  0  0  0  0  0  0  0  0  0  0  0
   52.8540    5.5221    2.7286 C   0  0  0  0  0  0  0  0  0  0  0  0
   53.7849    4.6241    2.2019 C   0  0  0  0  0  0  0  0  0  0  0  0
   54.2324    3.5572    2.9779 C   0  0  0  0  0  0  0  0  0  0  0  0
   55.4961    2.3442    2.2667 Br  0  0  0  0  0  0  0  0  0  0  0  0
   53.7586    3.3799    4.2760 C   0  0  0  0  0  0  0  0  0  0  0  0
   52.8285    4.2786    4.8034 C   0  0  0  0  0  0  0  0  0  0  0  0
 19 20  2  0
 20 21  1  0
 20 18  1  0
 18 17  1  0
 17  7  1  0
  7  8  2  0
  8 13  1  0
 13 14  2  0
 13 15  1  0
  8  9  1  0
  9 10  1  0
 10  1  1  0
  1  2  2  0
  2  3  1  0
  3  4  2  0
  4  5  1  0
  5 23  1  0
 23 25  1  0
 25 26  1  0
 26 27  1  0
 27 28  1  0
 28 31  1  0
 31 32  2  0
 31 33  2  0
 31 34  1  0
 34 35  1  0
 35 36  2  0
 36 37  1  0
 37 38  2  0
 38 39  1  0
 38 40  1  0
 40 41  2  0
 28 29  1  0
 29 30  1  0
  5  6  2  0
 10 11  2  0
 11 12  1  0
 11  7  1  0
  6  1  1  0
 30 25  1  0
 41 35  1  0
 21 22  1  0
 15 16  1  0
 23 24  1  0
M  END
> <minimizedAffinity>
-7.72942

> <CNNscore>
0.7068407536

> <CNNaffinity>
6.8478546143

> <CNN_VS>
4.8403425217

> <CNNaffinity_variance>
0.0031934336

$$$$



 41 44  0  0  0  0  0  0  0  0999 V2000
   44.7816   13.1791    0.1238 C   0  0  0  0  0  0  0  0  0  0  0  0
   44.4853   13.6127   -1.1694 C   0  0  0  0  0  0  0  0  0  0  0  0
   44.2693   12.6803   -2.1786 C   0  0  0  0  0  0  0  0  0  0  0  0
   44.3329   11.3116   -1.8993 C   0  0  0  0  0  0  0  0  0  0  0  0
   44.5803   10.8389   -0.6104 C   0  0  0  0  0  0  0  0  0  0  0  0
   44.8425   11.8000    0.3826 C   0  0  0  0  0  0  0  0  0  0  0  0
   45.9051   15.2848    3.0431 C   0  0  0  0  0  0  0  0  0  0  0  0
   44.9304   16.1771    2.6289 C   0  0  0  0  0  0  0  0  0  0  0  0
   44.1763   15.6326    1.1822 S   0  0  0  0  0  0  0  0  0  0  0  0
   45.0390   14.1528    1.1857 C   0  0  0  0  0  0  0  0  0  0  0  0
   45.9107   14.0973    2.2529 C   0  0  0  0  0  0  0  0  0  0  0  0
   46.9751   12.5848    2.6828 Br  0  0  0  0  0  0  0  0  0  0  0  0
   44.4856   17.4332    3.1883 C   0  0  0  0  0  0  0  0  0  0  0  0
   44.3952   17.7478    4.3682 O   0  0  0  0  0  0  0  0  0  0  0  0
   44.1901   18.3474    2.2374 O   0  0  0  0  0  0  0  0  0  0  0  0
   44.2555   18.1186    1.3312 H   0  0  0  0  0  0  0  0  0  0  0  0
   46.6585   15.5099    4.1499 O   0  0  0  0  0  0  0  0  0  0  0  0
   47.7389   16.4077    3.9206 C   0  0  0  0  0  0  0  0  0  0  0  0
   48.7052   18.4666    4.8909 O   0  0  0  0  0  0  0  0  0  0  0  0
   47.8422   17.6062    4.8547 C   0  0  0  0  0  0  0  0  0  0  0  0
   46.8143   17.6453    5.7332 O   0  0  0  0  0  0  0  0  0  0  0  0
   46.1501   16.9848    5.7068 H   0  0  0  0  0  0  0  0  0  0  0  0
   44.6999    9.4945   -0.2691 N   0  0  0  0  0  0  0  0  0  0  0  0
   43.8770    8.9545   -0.2929 H   0  0  0  0  0  0  0  0  0  0  0  0
   45.9354    8.8043    0.1231 C   0  0  0  0  0  0  0  0  0  0  0  0
   46.7434    9.5513    1.1899 C   0  0  0  0  0  0  0  0  0  0  0  0
   48.2170    9.7063    0.8307 C   0  0  0  0  0  0  0  0  0  0  0  0
   48.8011    8.4481    0.3344 N   0  0  0  0  0  0  0  0  0  0  0  0
   47.9922    7.5850   -0.5429 C   0  0  0  0  0  0  0  0  0  0  0  0
   46.7646    8.3211   -1.0626 C   0  0  0  0  0  0  0  0  0  0  0  0
   50.1724    7.8016    1.0833 S   0  0  0  0  0  0  0  0  0  0  0  0
   50.1763    6.3793    0.8074 O   0  0  0  0  0  0  0  0  0  0  0  0
   51.2893    8.6495    0.7207 O   0  0  0  0  0  0  0  0  0  0  0  0
   49.7804    8.0511    2.8246 C   0  0  0  0  0  0  0  0  0  0  0  0
   50.4972    7.0119    3.6488 C   0  0  0  0  0  0  0  0  0  0  0  0
   49.7793    6.0064    4.3158 C   0  0  0  0  0  0  0  0  0  0  0  0
   50.4485    5.0329    5.0608 C   0  0  0  0  0  0  0  0  0  0  0  0
   51.8389    5.0599    5.1437 C   0  0  0  0  0  0  0  0  0  0  0  0
   52.7452    3.7395    6.1483 Br  0  0  0  0  0  0  0  0  0  0  0  0
   52.5668    6.0506    4.4882 C   0  0  0  0  0  0  0  0  0  0  0  0
   51.8978    7.0236    3.7421 C   0  0  0  0  0  0  0  0  0  0  0  0
 19 20  2  0
 20 21  1  0
 20 18  1  0
 18 17  1  0
 17  7  1  0
  7  8  2  0
  8 13  1  0
 13 14  2  0
 13 15  1  0
  8  9  1  0
  9 10  1  0
 10  1  1  0
  1  2  2  0
  2  3  1  0
  3  4  2  0
  4  5  1  0
  5 23  1  0
 23 25  1  0
 25 26  1  0
 26 27  1  0
 27 28  1  0
 28 31  1  0
 31 32  2  0
 31 33  2  0
 31 34  1  0
 34 35  1  0
 35 36  2  0
 36 37  1  0
 37 38  2  0
 38 39  1  0
 38 40  1  0
 40 41  2  0
 28 29  1  0
 29 30  1  0
  5  6  2  0
 10 11  2  0
 11 12  1  0
 11  7  1  0
  6  1  1  0
 30 25  1  0
 41 35  1  0
 21 22  1  0
 15 16  1  0
 23 24  1  0
M  END
> <minimizedAffinity>
-9.45311

> <CNNscore>
0.6722423434

> <CNNaffinity>
6.6974816322

> <CNN_VS>
4.5023307800

> <CNNaffinity_variance>
0.2601830959

$$$$



 41 44  0  0  0  0  0  0  0  0999 V2000
   45.5093   12.2980   -0.0732 C   0  0  0  0  0  0  0  0  0  0  0  0
   44.4521   11.9735   -0.9247 C   0  0  0  0  0  0  0  0  0  0  0  0
   44.5688   10.8907   -1.7898 C   0  0  0  0  0  0  0  0  0  0  0  0
   45.7341   10.1177   -1.7987 C   0  0  0  0  0  0  0  0  0  0  0  0
   46.7936   10.3819   -0.9305 C   0  0  0  0  0  0  0  0  0  0  0  0
   46.6716   11.5100   -0.0994 C   0  0  0  0  0  0  0  0  0  0  0  0
   45.6710   14.9634    2.5893 C   0  0  0  0  0  0  0  0  0  0  0  0
   44.7749   15.6550    1.7915 C   0  0  0  0  0  0  0  0  0  0  0  0
   44.4679   14.7996    0.3313 S   0  0  0  0  0  0  0  0  0  0  0  0
   45.4071   13.4531    0.8198 C   0  0  0  0  0  0  0  0  0  0  0  0
   45.9712   13.6738    2.0588 C   0  0  0  0  0  0  0  0  0  0  0  0
   46.9955   12.3877    3.0084 Br  0  0  0  0  0  0  0  0  0  0  0  0
   44.1072   16.9225    1.9823 C   0  0  0  0  0  0  0  0  0  0  0  0
   43.1080   17.3458    1.4152 O   0  0  0  0  0  0  0  0  0  0  0  0
   44.6802   17.6681    2.9534 O   0  0  0  0  0  0  0  0  0  0  0  0
   45.4452   17.3549    3.3946 H   0  0  0  0  0  0  0  0  0  0  0  0
   46.0900   15.4513    3.7850 O   0  0  0  0  0  0  0  0  0  0  0  0
   47.3894   16.0296    3.7312 C   0  0  0  0  0  0  0  0  0  0  0  0
   46.8412   17.8589    5.3019 O   0  0  0  0  0  0  0  0  0  0  0  0
   47.6456   17.2219    4.6435 C   0  0  0  0  0  0  0  0  0  0  0  0
   48.9544   17.5634    4.6642 O   0  0  0  0  0  0  0  0  0  0  0  0
   49.5740   17.0749    4.1588 H   0  0  0  0  0  0  0  0  0  0  0  0
   47.9974    9.6828   -0.9141 N   0  0  0  0  0  0  0  0  0  0  0  0
   48.3858    9.4449   -1.7869 H   0  0  0  0  0  0  0  0  0  0  0  0
   48.7436    9.2660    0.2801 C   0  0  0  0  0  0  0  0  0  0  0  0
   50.2188    8.9547    0.0043 C   0  0  0  0  0  0  0  0  0  0  0  0
   50.6677    7.6130    0.5727 C   0  0  0  0  0  0  0  0  0  0  0  0
   50.2097    7.4180    1.9592 N   0  0  0  0  0  0  0  0  0  0  0  0
   48.8630    7.8801    2.3358 C   0  0  0  0  0  0  0  0  0  0  0  0
   48.0256    8.2029    1.1055 C   0  0  0  0  0  0  0  0  0  0  0  0
   51.3313    7.0787    3.1783 S   0  0  0  0  0  0  0  0  0  0  0  0
   52.2464    6.0878    2.6497 O   0  0  0  0  0  0  0  0  0  0  0  0
   51.7995    8.3520    3.6859 O   0  0  0  0  0  0  0  0  0  0  0  0
   50.2851    6.2953    4.4192 C   0  0  0  0  0  0  0  0  0  0  0  0
   51.0005    5.0950    4.9856 C   0  0  0  0  0  0  0  0  0  0  0  0
   50.3285    3.8735    5.1530 C   0  0  0  0  0  0  0  0  0  0  0  0
   51.0005    2.7583    5.6579 C   0  0  0  0  0  0  0  0  0  0  0  0
   52.3474    2.8582    5.9992 C   0  0  0  0  0  0  0  0  0  0  0  0
   53.2583    1.3472    6.6784 Br  0  0  0  0  0  0  0  0  0  0  0  0
   53.0293    4.0626    5.8397 C   0  0  0  0  0  0  0  0  0  0  0  0
   52.3578    5.1778    5.3335 C   0  0  0  0  0  0  0  0  0  0  0  0
 19 20  2  0
 20 21  1  0
 20 18  1  0
 18 17  1  0
 17  7  1  0
  7  8  2  0
  8 13  1  0
 13 14  2  0
 13 15  1  0
  8  9  1  0
  9 10  1  0
 10  1  1  0
  1  2  2  0
  2  3  1  0
  3  4  2  0
  4  5  1  0
  5 23  1  0
 23 25  1  0
 25 26  1  0
 26 27  1  0
 27 28  1  0
 28 31  1  0
 31 32  2  0
 31 33  2  0
 31 34  1  0
 34 35  1  0
 35 36  2  0
 36 37  1  0
 37 38  2  0
 38 39  1  0
 38 40  1  0
 40 41  2  0
 28 29  1  0
 29 30  1  0
  5  6  2  0
 10 11  2  0
 11 12  1  0
 11  7  1  0
  6  1  1  0
 30 25  1  0
 41 35  1  0
 21 22  1  0
 15 16  1  0
 23 24  1  0
M  END
> <minimizedAffinity>
-8.69176

> <CNNscore>
0.5645018816

> <CNNaffinity>
6.7522959709

> <CNN_VS>
3.8116838932

> <CNNaffinity_variance>
0.0492055826

$$$$



 41 44  0  0  0  0  0  0  0  0999 V2000
   47.1672   11.9654    1.3687 C   0  0  0  0  0  0  0  0  0  0  0  0
   47.9449   12.2007    0.2338 C   0  0  0  0  0  0  0  0  0  0  0  0
   48.7043   11.1699   -0.3095 C   0  0  0  0  0  0  0  0  0  0  0  0
   48.6798    9.8963    0.2675 C   0  0  0  0  0  0  0  0  0  0  0  0
   47.8799    9.6099    1.3739 C   0  0  0  0  0  0  0  0  0  0  0  0
   47.1583   10.6796    1.9338 C   0  0  0  0  0  0  0  0  0  0  0  0
   44.8001   14.7220    2.3770 C   0  0  0  0  0  0  0  0  0  0  0  0
   45.5542   14.7912    3.5364 C   0  0  0  0  0  0  0  0  0  0  0  0
   46.7690   13.5736    3.5507 S   0  0  0  0  0  0  0  0  0  0  0  0
   46.3875   13.0511    1.9646 C   0  0  0  0  0  0  0  0  0  0  0  0
   45.3286   13.7719    1.4536 C   0  0  0  0  0  0  0  0  0  0  0  0
   44.6628   13.5805   -0.3142 Br  0  0  0  0  0  0  0  0  0  0  0  0
   45.4709   15.6724    4.6789 C   0  0  0  0  0  0  0  0  0  0  0  0
   44.4764   16.2062    5.1534 O   0  0  0  0  0  0  0  0  0  0  0  0
   46.6675   15.8537    5.2809 O   0  0  0  0  0  0  0  0  0  0  0  0
   47.4358   15.4504    4.9272 H   0  0  0  0  0  0  0  0  0  0  0  0
   43.7615   15.5655    2.1467 O   0  0  0  0  0  0  0  0  0  0  0  0
   44.1304   16.7194    1.3994 C   0  0  0  0  0  0  0  0  0  0  0  0
   45.8255   18.1131    2.5389 O   0  0  0  0  0  0  0  0  0  0  0  0
   44.6766   17.9007    2.1904 C   0  0  0  0  0  0  0  0  0  0  0  0
   43.6996   18.7762    2.5200 O   0  0  0  0  0  0  0  0  0  0  0  0
   42.8161   18.6146    2.2531 H   0  0  0  0  0  0  0  0  0  0  0  0
   47.8387    8.3798    2.0244 N   0  0  0  0  0  0  0  0  0  0  0  0
   47.0444    7.8197    1.8673 H   0  0  0  0  0  0  0  0  0  0  0  0
   48.8662    7.8372    2.9225 C   0  0  0  0  0  0  0  0  0  0  0  0
   50.2967    8.0361    2.4095 C   0  0  0  0  0  0  0  0  0  0  0  0
   51.1294    6.7592    2.4369 C   0  0  0  0  0  0  0  0  0  0  0  0
   50.9902    6.0348    3.7121 N   0  0  0  0  0  0  0  0  0  0  0  0
   49.6678    5.9776    4.3579 C   0  0  0  0  0  0  0  0  0  0  0  0
   48.5672    6.4207    3.4032 C   0  0  0  0  0  0  0  0  0  0  0  0
   52.3644    5.6571    4.6221 S   0  0  0  0  0  0  0  0  0  0  0  0
   53.2298    4.8622    3.7746 O   0  0  0  0  0  0  0  0  0  0  0  0
   52.8195    6.8909    5.2294 O   0  0  0  0  0  0  0  0  0  0  0  0
   51.6675    4.5913    5.8975 C   0  0  0  0  0  0  0  0  0  0  0  0
   51.9536    3.1518    5.5526 C   0  0  0  0  0  0  0  0  0  0  0  0
   51.1753    2.4749    4.6000 C   0  0  0  0  0  0  0  0  0  0  0  0
   51.4571    1.1481    4.2677 C   0  0  0  0  0  0  0  0  0  0  0  0
   52.5178    0.4904    4.8865 C   0  0  0  0  0  0  0  0  0  0  0  0
   52.9023   -1.3044    4.4335 Br  0  0  0  0  0  0  0  0  0  0  0  0
   53.3002    1.1470    5.8341 C   0  0  0  0  0  0  0  0  0  0  0  0
   53.0193    2.4744    6.1656 C   0  0  0  0  0  0  0  0  0  0  0  0
 19 20  2  0
 20 21  1  0
 20 18  1  0
 18 17  1  0
 17  7  1  0
  7  8  2  0
  8 13  1  0
 13 14  2  0
 13 15  1  0
  8  9  1  0
  9 10  1  0
 10  1  1  0
  1  2  2  0
  2  3  1  0
  3  4  2  0
  4  5  1  0
  5 23  1  0
 23 25  1  0
 25 26  1  0
 26 27  1  0
 27 28  1  0
 28 31  1  0
 31 32  2  0
 31 33  2  0
 31 34  1  0
 34 35  1  0
 35 36  2  0
 36 37  1  0
 37 38  2  0
 38 39  1  0
 38 40  1  0
 40 41  2  0
 28 29  1  0
 29 30  1  0
  5  6  2  0
 10 11  2  0
 11 12  1  0
 11  7  1  0
  6  1  1  0
 30 25  1  0
 41 35  1  0
 21 22  1  0
 15 16  1  0
 23 24  1  0
M  END
> <minimizedAffinity>
-8.61064

> <CNNscore>
0.5606157184

> <CNNaffinity>
6.6074256897

> <CNN_VS>
3.7042267323

> <CNNaffinity_variance>
0.0721357688

$$$$
