


 26 28  0  0  0  0  0  0  0  0999 V2000
   90.7995   99.2152  -45.2595 N   0  0  0  0  0  0  0  0  0  0  0  0
   92.0515   99.3903  -44.5140 C   0  0  0  0  0  0  0  0  0  0  0  0
   91.9729  100.3906  -43.3578 C   0  0  0  0  0  0  0  0  0  0  0  0
   91.4512  101.7735  -43.8098 C   0  0  0  0  0  0  0  0  0  0  0  0
   90.1468  101.5613  -44.6110 C   0  0  0  0  0  0  0  0  0  0  0  0
   90.3089  100.5178  -45.7184 C   0  0  0  0  0  0  0  0  0  0  0  0
   91.2513  102.7165  -42.6636 N   0  0  0  0  0  0  0  0  0  0  0  0
   90.6904  102.0251  -41.4832 C   0  0  0  0  0  0  0  0  0  0  0  0
   90.5218  102.9583  -40.2814 C   0  0  0  0  0  0  0  0  0  0  0  0
   89.6669  104.1683  -40.6216 C   0  0  0  0  0  0  0  0  0  0  0  0
   88.3105  103.7736  -40.8242 O   0  0  0  0  0  0  0  0  0  0  0  0
   90.1872  104.8427  -41.8795 C   0  0  0  0  0  0  0  0  0  0  0  0
   90.3679  103.8465  -43.0270 C   0  0  0  0  0  0  0  0  0  0  0  0
   88.2626  103.1491  -41.5648 H   0  0  0  0  0  0  0  0  0  0  0  0
   89.7718   98.4797  -44.4985 C   0  0  0  0  0  0  0  0  0  0  0  0
   90.0146   96.1112  -46.0690 O   0  0  0  0  0  0  0  0  0  0  0  0
   90.3912   96.0144  -44.7544 C   0  0  0  0  0  0  0  0  0  0  0  0
   90.2817   97.1578  -43.9559 C   0  0  0  0  0  0  0  0  0  0  0  0
   90.6774   97.0709  -42.6113 C   0  0  0  0  0  0  0  0  0  0  0  0
   91.1563   95.8712  -42.0757 C   0  0  0  0  0  0  0  0  0  0  0  0
   91.6087   95.8805  -40.4049 Cl  0  0  0  0  0  0  0  0  0  0  0  0
   91.2563   94.7257  -42.8789 C   0  0  0  0  0  0  0  0  0  0  0  0
   91.8519   93.2390  -42.2062 Cl  0  0  0  0  0  0  0  0  0  0  0  0
   90.8709   94.8027  -44.2269 C   0  0  0  0  0  0  0  0  0  0  0  0
   90.9757   93.2960  -45.3965 Br  0  0  0  0  0  0  0  0  0  0  0  0
   89.6967   96.9254  -46.4066 H   0  0  0  0  0  0  0  0  0  0  0  0
 16 17  1  0
 17 18  2  0
 18 15  1  0
 15  1  1  0
  1  2  1  0
  2  3  1  0
  3  4  1  0
  4  7  1  0
  7  8  1  0
  8  9  1  0
  9 10  1  0
 10 11  1  0
 10 12  1  0
 12 13  1  0
  4  5  1  0
  5  6  1  0
 18 19  1  0
 19 20  2  0
 20 21  1  0
 20 22  1  0
 22 23  1  0
 22 24  2  0
 24 25  1  0
 24 17  1  0
  6  1  1  0
 13  7  1  0
 16 26  1  0
 11 14  1  0
M  END
> <minimizedAffinity>
-5.51319

> <CNNscore>
0.7499230504

> <CNNaffinity>
5.7098097801

> <CNN_VS>
4.2819180489

> <CNNaffinity_variance>
0.5174576640

$$$$



 26 28  0  0  0  0  0  0  0  0999 V2000
   90.7176   98.9849  -45.6774 N   0  0  0  0  0  0  0  0  0  0  0  0
   92.0994   98.8527  -45.2011 C   0  0  0  0  0  0  0  0  0  0  0  0
   92.4274   99.6766  -43.9533 C   0  0  0  0  0  0  0  0  0  0  0  0
   92.0908  101.1745  -44.1313 C   0  0  0  0  0  0  0  0  0  0  0  0
   90.6410  101.2868  -44.6545 C   0  0  0  0  0  0  0  0  0  0  0  0
   90.3950  100.4006  -45.8774 C   0  0  0  0  0  0  0  0  0  0  0  0
   92.2895  101.9629  -42.8734 N   0  0  0  0  0  0  0  0  0  0  0  0
   93.6702  102.4814  -42.7700 C   0  0  0  0  0  0  0  0  0  0  0  0
   93.8854  103.3320  -41.5155 C   0  0  0  0  0  0  0  0  0  0  0  0
   93.5267  102.5714  -40.2491 C   0  0  0  0  0  0  0  0  0  0  0  0
   94.4749  101.5316  -40.0121 O   0  0  0  0  0  0  0  0  0  0  0  0
   92.1386  101.9669  -40.3744 C   0  0  0  0  0  0  0  0  0  0  0  0
   91.9818  101.1632  -41.6672 C   0  0  0  0  0  0  0  0  0  0  0  0
   94.4636  100.9082  -40.7552 H   0  0  0  0  0  0  0  0  0  0  0  0
   89.7372   98.3183  -44.7993 C   0  0  0  0  0  0  0  0  0  0  0  0
   90.5207   97.8573  -42.0958 O   0  0  0  0  0  0  0  0  0  0  0  0
   90.6060   96.7868  -42.9482 C   0  0  0  0  0  0  0  0  0  0  0  0
   90.2317   96.9805  -44.2822 C   0  0  0  0  0  0  0  0  0  0  0  0
   90.3038   95.8860  -45.1590 C   0  0  0  0  0  0  0  0  0  0  0  0
   90.7506   94.6362  -44.7188 C   0  0  0  0  0  0  0  0  0  0  0  0
   90.8035   93.3623  -45.8895 Cl  0  0  0  0  0  0  0  0  0  0  0  0
   91.1324   94.4500  -43.3821 C   0  0  0  0  0  0  0  0  0  0  0  0
   91.6866   92.8945  -42.8428 Cl  0  0  0  0  0  0  0  0  0  0  0  0
   91.0571   95.5351  -42.4942 C   0  0  0  0  0  0  0  0  0  0  0  0
   91.5522   95.3743  -40.6562 Br  0  0  0  0  0  0  0  0  0  0  0  0
   90.2183   98.6856  -42.4128 H   0  0  0  0  0  0  0  0  0  0  0  0
 16 17  1  0
 17 18  2  0
 18 15  1  0
 15  1  1  0
  1  2  1  0
  2  3  1  0
  3  4  1  0
  4  7  1  0
  7  8  1  0
  8  9  1  0
  9 10  1  0
 10 11  1  0
 10 12  1  0
 12 13  1  0
  4  5  1  0
  5  6  1  0
 18 19  1  0
 19 20  2  0
 20 21  1  0
 20 22  1  0
 22 23  1  0
 22 24  2  0
 24 25  1  0
 24 17  1  0
  6  1  1  0
 13  7  1  0
 16 26  1  0
 11 14  1  0
M  END
> <minimizedAffinity>
-6.34277

> <CNNscore>
0.7190205455

> <CNNaffinity>
5.1210308075

> <CNN_VS>
3.6821262836

> <CNNaffinity_variance>
0.6023876071

$$$$



 26 28  0  0  0  0  0  0  0  0999 V2000
   90.0385   98.9026  -43.1915 N   0  0  0  0  0  0  0  0  0  0  0  0
   91.1251   99.4268  -44.0273 C   0  0  0  0  0  0  0  0  0  0  0  0
   92.0842  100.3779  -43.3070 C   0  0  0  0  0  0  0  0  0  0  0  0
   91.3476  101.5564  -42.6306 C   0  0  0  0  0  0  0  0  0  0  0  0
   90.1955  100.9816  -41.7758 C   0  0  0  0  0  0  0  0  0  0  0  0
   89.3137  100.0126  -42.5664 C   0  0  0  0  0  0  0  0  0  0  0  0
   92.2642  102.4188  -41.8187 N   0  0  0  0  0  0  0  0  0  0  0  0
   93.6129  102.4941  -42.4197 C   0  0  0  0  0  0  0  0  0  0  0  0
   94.5555  103.4093  -41.6339 C   0  0  0  0  0  0  0  0  0  0  0  0
   94.6657  102.9895  -40.1771 C   0  0  0  0  0  0  0  0  0  0  0  0
   95.3712  101.7535  -40.0712 O   0  0  0  0  0  0  0  0  0  0  0  0
   93.2824  102.8324  -39.5692 C   0  0  0  0  0  0  0  0  0  0  0  0
   92.3825  101.9376  -40.4244 C   0  0  0  0  0  0  0  0  0  0  0  0
   94.8876  101.0631  -40.5512 H   0  0  0  0  0  0  0  0  0  0  0  0
   90.4998   97.9185  -42.1940 C   0  0  0  0  0  0  0  0  0  0  0  0
   91.6353   95.7285  -40.7623 O   0  0  0  0  0  0  0  0  0  0  0  0
   91.2477   95.4797  -42.0536 C   0  0  0  0  0  0  0  0  0  0  0  0
   90.6894   96.5339  -42.7844 C   0  0  0  0  0  0  0  0  0  0  0  0
   90.2777   96.2844  -44.1036 C   0  0  0  0  0  0  0  0  0  0  0  0
   90.4323   95.0203  -44.6814 C   0  0  0  0  0  0  0  0  0  0  0  0
   89.8947   94.8311  -46.3159 Cl  0  0  0  0  0  0  0  0  0  0  0  0
   91.0002   93.9692  -43.9466 C   0  0  0  0  0  0  0  0  0  0  0  0
   91.1891   92.4018  -44.6714 Cl  0  0  0  0  0  0  0  0  0  0  0  0
   91.4083   94.2048  -42.6239 C   0  0  0  0  0  0  0  0  0  0  0  0
   92.1880   92.8335  -41.5465 Br  0  0  0  0  0  0  0  0  0  0  0  0
   91.5220   96.5833  -40.3956 H   0  0  0  0  0  0  0  0  0  0  0  0
 16 17  1  0
 17 18  2  0
 18 15  1  0
 15  1  1  0
  1  2  1  0
  2  3  1  0
  3  4  1  0
  4  7  1  0
  7  8  1  0
  8  9  1  0
  9 10  1  0
 10 11  1  0
 10 12  1  0
 12 13  1  0
  4  5  1  0
  5  6  1  0
 18 19  1  0
 19 20  2  0
 20 21  1  0
 20 22  1  0
 22 23  1  0
 22 24  2  0
 24 25  1  0
 24 17  1  0
  6  1  1  0
 13  7  1  0
 16 26  1  0
 11 14  1  0
M  END
> <minimizedAffinity>
-6.67909

> <CNNscore>
0.7056561112

> <CNNaffinity>
4.9274768829

> <CNN_VS>
3.4771041870

> <CNNaffinity_variance>
0.8691762090

$$$$



 26 28  0  0  0  0  0  0  0  0999 V2000
   90.4171   99.3968  -42.9002 N   0  0  0  0  0  0  0  0  0  0  0  0
   91.5214  100.2982  -43.2492 C   0  0  0  0  0  0  0  0  0  0  0  0
   91.8913  101.3082  -42.1600 C   0  0  0  0  0  0  0  0  0  0  0  0
   90.6775  102.1450  -41.6960 C   0  0  0  0  0  0  0  0  0  0  0  0
   89.5221  101.1765  -41.3566 C   0  0  0  0  0  0  0  0  0  0  0  0
   89.2497  100.1798  -42.4853 C   0  0  0  0  0  0  0  0  0  0  0  0
   91.0045  103.0442  -40.5437 N   0  0  0  0  0  0  0  0  0  0  0  0
   90.6886  102.4043  -39.2489 C   0  0  0  0  0  0  0  0  0  0  0  0
   91.0591  103.2850  -38.0529 C   0  0  0  0  0  0  0  0  0  0  0  0
   90.3918  104.6488  -38.1276 C   0  0  0  0  0  0  0  0  0  0  0  0
   88.9855  104.5226  -37.9193 O   0  0  0  0  0  0  0  0  0  0  0  0
   90.6439  105.2838  -39.4844 C   0  0  0  0  0  0  0  0  0  0  0  0
   90.2883  104.3360  -40.6320 C   0  0  0  0  0  0  0  0  0  0  0  0
   88.6054  103.9593  -38.6115 H   0  0  0  0  0  0  0  0  0  0  0  0
   90.7902   98.3908  -41.8877 C   0  0  0  0  0  0  0  0  0  0  0  0
   91.8491   96.1600  -40.4604 O   0  0  0  0  0  0  0  0  0  0  0  0
   91.4069   95.9163  -41.7350 C   0  0  0  0  0  0  0  0  0  0  0  0
   90.8842   96.9903  -42.4633 C   0  0  0  0  0  0  0  0  0  0  0  0
   90.4172   96.7469  -43.7651 C   0  0  0  0  0  0  0  0  0  0  0  0
   90.4833   95.4688  -44.3288 C   0  0  0  0  0  0  0  0  0  0  0  0
   89.8837   95.2886  -45.9426 Cl  0  0  0  0  0  0  0  0  0  0  0  0
   91.0159   94.3975  -43.5969 C   0  0  0  0  0  0  0  0  0  0  0  0
   91.0948   92.8128  -44.3041 Cl  0  0  0  0  0  0  0  0  0  0  0  0
   91.4788   94.6272  -42.2913 C   0  0  0  0  0  0  0  0  0  0  0  0
   92.2162   93.2289  -41.2189 Br  0  0  0  0  0  0  0  0  0  0  0  0
   91.7948   97.0244  -40.1029 H   0  0  0  0  0  0  0  0  0  0  0  0
 16 17  1  0
 17 18  2  0
 18 15  1  0
 15  1  1  0
  1  2  1  0
  2  3  1  0
  3  4  1  0
  4  7  1  0
  7  8  1  0
  8  9  1  0
  9 10  1  0
 10 11  1  0
 10 12  1  0
 12 13  1  0
  4  5  1  0
  5  6  1  0
 18 19  1  0
 19 20  2  0
 20 21  1  0
 20 22  1  0
 22 23  1  0
 22 24  2  0
 24 25  1  0
 24 17  1  0
  6  1  1  0
 13  7  1  0
 16 26  1  0
 11 14  1  0
M  END
> <minimizedAffinity>
-5.95689

> <CNNscore>
0.7017093897

> <CNNaffinity>
5.2895421982

> <CNN_VS>
3.7117214203

> <CNNaffinity_variance>
0.4356733859

$$$$



 26 28  0  0  0  0  0  0  0  0999 V2000
   90.5851   98.9661  -45.6083 N   0  0  0  0  0  0  0  0  0  0  0  0
   91.9812   98.8439  -45.1726 C   0  0  0  0  0  0  0  0  0  0  0  0
   92.3371   99.6622  -43.9288 C   0  0  0  0  0  0  0  0  0  0  0  0
   91.9814  101.1581  -44.0863 C   0  0  0  0  0  0  0  0  0  0  0  0
   90.5162  101.2600  -44.5671 C   0  0  0  0  0  0  0  0  0  0  0  0
   90.2436  100.3799  -45.7889 C   0  0  0  0  0  0  0  0  0  0  0  0
   92.2086  101.9396  -42.8291 N   0  0  0  0  0  0  0  0  0  0  0  0
   93.6059  102.4123  -42.7285 C   0  0  0  0  0  0  0  0  0  0  0  0
   93.8516  103.2555  -41.4747 C   0  0  0  0  0  0  0  0  0  0  0  0
   93.4706  102.5073  -40.2075 C   0  0  0  0  0  0  0  0  0  0  0  0
   94.3845  101.4368  -39.9722 O   0  0  0  0  0  0  0  0  0  0  0  0
   92.0631  101.9489  -40.3298 C   0  0  0  0  0  0  0  0  0  0  0  0
   91.8772  101.1506  -41.6220 C   0  0  0  0  0  0  0  0  0  0  0  0
   94.3512  100.8140  -40.7151 H   0  0  0  0  0  0  0  0  0  0  0  0
   89.6366   98.2841  -44.7074 C   0  0  0  0  0  0  0  0  0  0  0  0
   89.8608   95.9094  -46.2714 O   0  0  0  0  0  0  0  0  0  0  0  0
   90.2789   95.8251  -44.9684 C   0  0  0  0  0  0  0  0  0  0  0  0
   90.1795   96.9719  -44.1733 C   0  0  0  0  0  0  0  0  0  0  0  0
   90.6175   96.8979  -42.8412 C   0  0  0  0  0  0  0  0  0  0  0  0
   91.1277   95.7074  -42.3139 C   0  0  0  0  0  0  0  0  0  0  0  0
   91.6311   95.7323  -40.6579 Cl  0  0  0  0  0  0  0  0  0  0  0  0
   91.2173   94.5585  -43.1133 C   0  0  0  0  0  0  0  0  0  0  0  0
   91.8520   93.0833  -42.4510 Cl  0  0  0  0  0  0  0  0  0  0  0  0
   90.7897   94.6227  -44.4493 C   0  0  0  0  0  0  0  0  0  0  0  0
   90.8775   93.1104  -45.6130 Br  0  0  0  0  0  0  0  0  0  0  0  0
   89.5225   96.7176  -46.6035 H   0  0  0  0  0  0  0  0  0  0  0  0
 16 17  1  0
 17 18  2  0
 18 15  1  0
 15  1  1  0
  1  2  1  0
  2  3  1  0
  3  4  1  0
  4  7  1  0
  7  8  1  0
  8  9  1  0
  9 10  1  0
 10 11  1  0
 10 12  1  0
 12 13  1  0
  4  5  1  0
  5  6  1  0
 18 19  1  0
 19 20  2  0
 20 21  1  0
 20 22  1  0
 22 23  1  0
 22 24  2  0
 24 25  1  0
 24 17  1  0
  6  1  1  0
 13  7  1  0
 16 26  1  0
 11 14  1  0
M  END
> <minimizedAffinity>
-6.54528

> <CNNscore>
0.5975612998

> <CNNaffinity>
5.3705620766

> <CNN_VS>
3.2092399597

> <CNNaffinity_variance>
0.4826189578

$$$$



 26 28  0  0  0  0  0  0  0  0999 V2000
   88.7751   97.4805  -46.5236 N   0  0  0  0  0  0  0  0  0  0  0  0
   88.2766   98.6362  -47.2783 C   0  0  0  0  0  0  0  0  0  0  0  0
   87.1973   99.4513  -46.5612 C   0  0  0  0  0  0  0  0  0  0  0  0
   86.0014   98.5804  -46.1140 C   0  0  0  0  0  0  0  0  0  0  0  0
   86.5522   97.3598  -45.3425 C   0  0  0  0  0  0  0  0  0  0  0  0
   87.6518   96.6310  -46.1178 C   0  0  0  0  0  0  0  0  0  0  0  0
   85.0032   99.3462  -45.3015 N   0  0  0  0  0  0  0  0  0  0  0  0
   85.5490   99.7155  -43.9780 C   0  0  0  0  0  0  0  0  0  0  0  0
   84.5642  100.5415  -43.1465 C   0  0  0  0  0  0  0  0  0  0  0  0
   83.2343   99.8263  -42.9715 C   0  0  0  0  0  0  0  0  0  0  0  0
   83.3917   98.6922  -42.1195 O   0  0  0  0  0  0  0  0  0  0  0  0
   82.7004   99.3720  -44.3193 C   0  0  0  0  0  0  0  0  0  0  0  0
   83.7477   98.5865  -45.1116 C   0  0  0  0  0  0  0  0  0  0  0  0
   84.0207   98.0718  -42.5199 H   0  0  0  0  0  0  0  0  0  0  0  0
   89.6177   97.8608  -45.3740 C   0  0  0  0  0  0  0  0  0  0  0  0
   90.3706   97.9022  -42.6232 O   0  0  0  0  0  0  0  0  0  0  0  0
   90.5311   96.7113  -43.2831 C   0  0  0  0  0  0  0  0  0  0  0  0
   90.1737   96.6582  -44.6347 C   0  0  0  0  0  0  0  0  0  0  0  0
   90.3228   95.4388  -45.3149 C   0  0  0  0  0  0  0  0  0  0  0  0
   90.8280   94.3074  -44.6667 C   0  0  0  0  0  0  0  0  0  0  0  0
   90.9736   92.8613  -45.6068 Cl  0  0  0  0  0  0  0  0  0  0  0  0
   91.1923   94.3686  -43.3137 C   0  0  0  0  0  0  0  0  0  0  0  0
   91.8194   92.9589  -42.5155 Cl  0  0  0  0  0  0  0  0  0  0  0  0
   91.0403   95.5805  -42.6210 C   0  0  0  0  0  0  0  0  0  0  0  0
   91.5064   95.7568  -40.7769 Br  0  0  0  0  0  0  0  0  0  0  0  0
   90.0300   98.6474  -43.0776 H   0  0  0  0  0  0  0  0  0  0  0  0
 16 17  1  0
 17 18  2  0
 18 15  1  0
 15  1  1  0
  1  2  1  0
  2  3  1  0
  3  4  1  0
  4  7  1  0
  7  8  1  0
  8  9  1  0
  9 10  1  0
 10 11  1  0
 10 12  1  0
 12 13  1  0
  4  5  1  0
  5  6  1  0
 18 19  1  0
 19 20  2  0
 20 21  1  0
 20 22  1  0
 22 23  1  0
 22 24  2  0
 24 25  1  0
 24 17  1  0
  6  1  1  0
 13  7  1  0
 16 26  1  0
 11 14  1  0
M  END
> <minimizedAffinity>
-6.72546

> <CNNscore>
0.5419482589

> <CNNaffinity>
5.0995883942

> <CNN_VS>
2.7637131214

> <CNNaffinity_variance>
0.8675823212

$$$$



 26 28  0  0  0  0  0  0  0  0999 V2000
   85.3330   97.8736  -46.1473 N   0  0  0  0  0  0  0  0  0  0  0  0
   84.6764   96.9192  -45.2461 C   0  0  0  0  0  0  0  0  0  0  0  0
   84.0890   95.6865  -45.9380 C   0  0  0  0  0  0  0  0  0  0  0  0
   83.1176   96.0594  -47.0809 C   0  0  0  0  0  0  0  0  0  0  0  0
   83.8220   97.0810  -48.0019 C   0  0  0  0  0  0  0  0  0  0  0  0
   84.4115   98.2572  -47.2204 C   0  0  0  0  0  0  0  0  0  0  0  0
   82.6388   94.8625  -47.8434 N   0  0  0  0  0  0  0  0  0  0  0  0
   81.5305   94.1798  -47.1424 C   0  0  0  0  0  0  0  0  0  0  0  0
   80.9908   92.9804  -47.9258 C   0  0  0  0  0  0  0  0  0  0  0  0
   82.0869   91.9785  -48.2505 C   0  0  0  0  0  0  0  0  0  0  0  0
   82.5257   91.3236  -47.0609 O   0  0  0  0  0  0  0  0  0  0  0  0
   83.2659   92.6818  -48.9012 C   0  0  0  0  0  0  0  0  0  0  0  0
   83.7285   93.8913  -48.0859 C   0  0  0  0  0  0  0  0  0  0  0  0
   82.8862   91.9801  -46.4445 H   0  0  0  0  0  0  0  0  0  0  0  0
   86.6167   97.3776  -46.6786 C   0  0  0  0  0  0  0  0  0  0  0  0
   88.9452   95.7339  -46.7871 O   0  0  0  0  0  0  0  0  0  0  0  0
   88.8635   96.6097  -45.7354 C   0  0  0  0  0  0  0  0  0  0  0  0
   87.7322   97.4285  -45.6515 C   0  0  0  0  0  0  0  0  0  0  0  0
   87.6465   98.3375  -44.5846 C   0  0  0  0  0  0  0  0  0  0  0  0
   88.6563   98.4166  -43.6205 C   0  0  0  0  0  0  0  0  0  0  0  0
   88.4401   99.5694  -42.3474 Cl  0  0  0  0  0  0  0  0  0  0  0  0
   89.7843   97.5875  -43.7051 C   0  0  0  0  0  0  0  0  0  0  0  0
   91.0344   97.6915  -42.5034 Cl  0  0  0  0  0  0  0  0  0  0  0  0
   89.8848   96.6801  -44.7719 C   0  0  0  0  0  0  0  0  0  0  0  0
   91.3852   95.5147  -44.9706 Br  0  0  0  0  0  0  0  0  0  0  0  0
   88.2567   95.6982  -47.4216 H   0  0  0  0  0  0  0  0  0  0  0  0
 16 17  1  0
 17 18  2  0
 18 15  1  0
 15  1  1  0
  1  2  1  0
  2  3  1  0
  3  4  1  0
  4  7  1  0
  7  8  1  0
  8  9  1  0
  9 10  1  0
 10 11  1  0
 10 12  1  0
 12 13  1  0
  4  5  1  0
  5  6  1  0
 18 19  1  0
 19 20  2  0
 20 21  1  0
 20 22  1  0
 22 23  1  0
 22 24  2  0
 24 25  1  0
 24 17  1  0
  6  1  1  0
 13  7  1  0
 16 26  1  0
 11 14  1  0
M  END
> <minimizedAffinity>
-4.35817

> <CNNscore>
0.2803160846

> <CNNaffinity>
4.0969467163

> <CNN_VS>
1.1484400034

> <CNNaffinity_variance>
0.6732326150

$$$$



 26 28  0  0  0  0  0  0  0  0999 V2000
   88.0526  101.3854  -43.5641 N   0  0  0  0  0  0  0  0  0  0  0  0
   89.1654  101.7258  -44.4583 C   0  0  0  0  0  0  0  0  0  0  0  0
   90.5570  101.5235  -43.8534 C   0  0  0  0  0  0  0  0  0  0  0  0
   90.7316  102.2744  -42.5137 C   0  0  0  0  0  0  0  0  0  0  0  0
   89.5378  101.9184  -41.5992 C   0  0  0  0  0  0  0  0  0  0  0  0
   88.1915  102.1135  -42.2998 C   0  0  0  0  0  0  0  0  0  0  0  0
   92.0434  101.9784  -41.8544 N   0  0  0  0  0  0  0  0  0  0  0  0
   91.9094  101.9137  -40.3834 C   0  0  0  0  0  0  0  0  0  0  0  0
   93.2280  101.5645  -39.6886 C   0  0  0  0  0  0  0  0  0  0  0  0
   94.3369  102.5355  -40.0606 C   0  0  0  0  0  0  0  0  0  0  0  0
   94.0837  103.8175  -39.4870 O   0  0  0  0  0  0  0  0  0  0  0  0
   94.4327  102.6706  -41.5707 C   0  0  0  0  0  0  0  0  0  0  0  0
   93.0740  102.9816  -42.2022 C   0  0  0  0  0  0  0  0  0  0  0  0
   93.2461  104.1658  -39.8306 H   0  0  0  0  0  0  0  0  0  0  0  0
   87.9088   99.9333  -43.3472 C   0  0  0  0  0  0  0  0  0  0  0  0
   87.5189   97.5573  -44.8763 O   0  0  0  0  0  0  0  0  0  0  0  0
   86.3885   98.2417  -44.5109 C   0  0  0  0  0  0  0  0  0  0  0  0
   86.5454   99.4132  -43.7625 C   0  0  0  0  0  0  0  0  0  0  0  0
   85.3922  100.1135  -43.3731 C   0  0  0  0  0  0  0  0  0  0  0  0
   84.1181   99.6635  -43.7332 C   0  0  0  0  0  0  0  0  0  0  0  0
   82.7700  100.6108  -43.2027 Cl  0  0  0  0  0  0  0  0  0  0  0  0
   83.9672   98.4927  -44.4906 C   0  0  0  0  0  0  0  0  0  0  0  0
   82.3811   97.9402  -44.9343 Cl  0  0  0  0  0  0  0  0  0  0  0  0
   85.1128   97.7798  -44.8791 C   0  0  0  0  0  0  0  0  0  0  0  0
   85.0043   96.1739  -45.9079 Br  0  0  0  0  0  0  0  0  0  0  0  0
   88.3625   97.8773  -44.6236 H   0  0  0  0  0  0  0  0  0  0  0  0
 16 17  1  0
 17 18  2  0
 18 15  1  0
 15  1  1  0
  1  2  1  0
  2  3  1  0
  3  4  1  0
  4  7  1  0
  7  8  1  0
  8  9  1  0
  9 10  1  0
 10 11  1  0
 10 12  1  0
 12 13  1  0
  4  5  1  0
  5  6  1  0
 18 19  1  0
 19 20  2  0
 20 21  1  0
 20 22  1  0
 22 23  1  0
 22 24  2  0
 24 25  1  0
 24 17  1  0
  6  1  1  0
 13  7  1  0
 16 26  1  0
 11 14  1  0
M  END
> <minimizedAffinity>
-4.22201

> <CNNscore>
0.2439763546

> <CNNaffinity>
4.1678919792

> <CNN_VS>
1.0168670416

> <CNNaffinity_variance>
1.1079051495

$$$$



 26 28  0  0  0  0  0  0  0  0999 V2000
   91.0348  103.0276  -40.8786 N   0  0  0  0  0  0  0  0  0  0  0  0
   89.6524  102.7947  -41.3130 C   0  0  0  0  0  0  0  0  0  0  0  0
   89.4423  101.5082  -42.1156 C   0  0  0  0  0  0  0  0  0  0  0  0
   90.3831  101.4166  -43.3384 C   0  0  0  0  0  0  0  0  0  0  0  0
   91.8274  101.6877  -42.8603 C   0  0  0  0  0  0  0  0  0  0  0  0
   91.9342  102.9715  -42.0344 C   0  0  0  0  0  0  0  0  0  0  0  0
   90.2721  100.1054  -44.0536 N   0  0  0  0  0  0  0  0  0  0  0  0
   89.2160   99.2540  -43.4657 C   0  0  0  0  0  0  0  0  0  0  0  0
   89.0499   97.9266  -44.2101 C   0  0  0  0  0  0  0  0  0  0  0  0
   90.3553   97.1507  -44.2791 C   0  0  0  0  0  0  0  0  0  0  0  0
   90.7123   96.6685  -42.9843 O   0  0  0  0  0  0  0  0  0  0  0  0
   91.4677   98.0394  -44.8088 C   0  0  0  0  0  0  0  0  0  0  0  0
   91.5520   99.3629  -44.0453 C   0  0  0  0  0  0  0  0  0  0  0  0
   90.8358   97.4191  -42.3824 H   0  0  0  0  0  0  0  0  0  0  0  0
   91.4650  102.1125  -39.8045 C   0  0  0  0  0  0  0  0  0  0  0  0
   94.0092  102.5239  -38.5824 O   0  0  0  0  0  0  0  0  0  0  0  0
   92.9201  103.0084  -37.9052 C   0  0  0  0  0  0  0  0  0  0  0  0
   91.6569  102.8204  -38.4764 C   0  0  0  0  0  0  0  0  0  0  0  0
   90.5371  103.3250  -37.7957 C   0  0  0  0  0  0  0  0  0  0  0  0
   90.6740  103.9867  -36.5714 C   0  0  0  0  0  0  0  0  0  0  0  0
   89.2236  104.5603  -35.8205 Cl  0  0  0  0  0  0  0  0  0  0  0  0
   91.9421  104.1651  -35.9994 C   0  0  0  0  0  0  0  0  0  0  0  0
   92.1040  104.9880  -34.4782 Cl  0  0  0  0  0  0  0  0  0  0  0  0
   93.0700  103.6718  -36.6748 C   0  0  0  0  0  0  0  0  0  0  0  0
   94.8359  103.8715  -35.9744 Br  0  0  0  0  0  0  0  0  0  0  0  0
   93.8938  102.0838  -39.4016 H   0  0  0  0  0  0  0  0  0  0  0  0
 16 17  1  0
 17 18  2  0
 18 15  1  0
 15  1  1  0
  1  2  1  0
  2  3  1  0
  3  4  1  0
  4  7  1  0
  7  8  1  0
  8  9  1  0
  9 10  1  0
 10 11  1  0
 10 12  1  0
 12 13  1  0
  4  5  1  0
  5  6  1  0
 18 19  1  0
 19 20  2  0
 20 21  1  0
 20 22  1  0
 22 23  1  0
 22 24  2  0
 24 25  1  0
 24 17  1  0
  6  1  1  0
 13  7  1  0
 16 26  1  0
 11 14  1  0
M  END
> <minimizedAffinity>
-4.46778

> <CNNscore>
0.1932839751

> <CNNaffinity>
4.8146395683

> <CNN_VS>
0.9305926561

> <CNNaffinity_variance>
0.1990515739

$$$$
