


 35 36  0  0  0  0  0  0  0  0999 V2000
  -11.8466   13.3240   22.0917 C   0  0  0  0  0  0  0  0  0  0  0  0
  -10.6461   13.8017   21.2410 C   0  0  0  0  0  0  0  0  0  0  0  0
  -10.4340   13.0224   19.9394 C   0  0  0  0  0  0  0  0  0  0  0  0
   -9.1182   12.2998   20.1316 C   0  0  0  0  0  0  0  0  0  0  0  0
   -8.4218   12.1855   18.8954 O   0  0  0  0  0  0  0  0  0  0  0  0
   -7.0020   12.1763   19.0658 C   0  0  0  0  0  0  0  0  0  0  0  0
   -6.5243   13.5528   19.5583 C   0  0  0  0  0  0  0  0  0  0  0  0
   -6.3710   14.4637   18.4585 O   0  0  0  0  0  0  0  0  0  0  0  0
   -7.4994   14.1920   20.5730 C   0  0  0  0  0  0  0  0  0  0  0  0
   -8.2829   15.2079   19.9254 O   0  0  0  0  0  0  0  0  0  0  0  0
   -8.4083   13.1231   21.1981 C   0  0  0  0  0  0  0  0  0  0  0  0
   -9.4468   13.6585   22.0435 O   0  0  0  0  0  0  0  0  0  0  0  0
   -7.2317   14.6063   18.0344 H   0  0  0  0  0  0  0  0  0  0  0  0
   -8.8025   14.8086   19.2102 H   0  0  0  0  0  0  0  0  0  0  0  0
  -10.9476   15.2840   20.9338 C   0  0  0  0  0  0  0  0  0  0  0  0
  -11.1220   16.1693   21.7550 O   0  0  0  0  0  0  0  0  0  0  0  0
  -10.8530   15.5872   19.6180 O   0  0  0  0  0  0  0  0  0  0  0  0
  -10.7191   14.9060   18.9887 H   0  0  0  0  0  0  0  0  0  0  0  0
  -11.7321   11.9082   22.6825 C   0  0  0  0  0  0  0  0  0  0  0  0
  -11.2019   11.0234   21.6526 N   0  0  0  0  0  0  0  0  0  0  0  0
  -11.8437   11.0010   20.8601 H   0  0  0  0  0  0  0  0  0  0  0  0
  -11.0984   10.0826   22.0329 H   0  0  0  0  0  0  0  0  0  0  0  0
  -13.0919   11.3716   23.2425 C   0  0  0  0  0  0  0  0  0  0  0  0
  -13.1108   10.0002   24.0261 N   0  0  0  0  0  0  0  0  0  0  0  0
  -11.6971    9.4666   24.2629 C   0  0  0  0  0  0  0  0  0  0  0  0
  -13.7926    8.9033   23.1218 C   0  0  0  0  0  0  0  0  0  0  0  0
  -13.9873   10.0568   25.2811 C   0  0  0  0  0  0  0  0  0  0  0  0
  -14.2041    8.8397   26.2365 N   0  0  0  0  0  0  0  0  0  0  0  0
  -14.4054    7.5718   25.3989 C   0  0  0  0  0  0  0  0  0  0  0  0
  -13.0547    8.6382   27.1850 C   0  0  0  0  0  0  0  0  0  0  0  0
  -15.5356    9.1703   26.9768 C   0  0  0  0  0  0  0  0  0  0  0  0
  -16.9511    9.2892   29.1194 C   0  0  0  0  0  0  0  0  0  0  0  0
  -15.9852    8.4681   28.2467 N   0  0  0  0  0  0  0  0  0  0  0  0
  -14.9074    7.8555   29.1356 C   0  0  0  0  0  0  0  0  0  0  0  0
  -16.8498    7.2395   27.7665 C   0  0  0  0  0  0  0  0  0  0  0  0
 32 33  1  0
 33 34  1  0
 33 35  1  0
 33 31  1  0
 31 28  1  0
 28 29  1  0
 28 30  1  0
 28 27  1  0
 27 24  1  0
 24 25  1  0
 24 26  1  0
 24 23  1  0
 23 19  1  0
 19 20  1  0
 19  1  1  0
  2  1  1  0
  2 15  1  0
 15 16  2  0
 15 17  1  0
  2  3  1  0
  4  3  1  0
  4  5  1  0
  5  6  1  0
  6  7  1  0
  7  8  1  0
  7  9  1  0
  9 10  1  0
  9 11  1  0
 11 12  1  0
 12  2  1  0
 11  4  1  0
 20 21  1  0
 20 22  1  0
 17 18  1  0
  8 13  1  0
 10 14  1  0
M  CHG 1  24   1
M  CHG 1  28   1
M  CHG 1  33   1
M  END
> <minimizedAffinity>
0.26033

> <CNNscore>
0.5960271358

> <CNNaffinity>
6.5348892212

> <CNN_VS>
3.8949713707

> <CNNaffinity_variance>
0.3154576421

$$$$



 35 36  0  0  0  0  0  0  0  0999 V2000
  -10.4404   13.4855   22.6197 C   0  0  0  0  0  0  0  0  0  0  0  0
   -9.7542   14.4460   21.6200 C   0  0  0  0  0  0  0  0  0  0  0  0
   -9.2004   13.7707   20.3615 C   0  0  0  0  0  0  0  0  0  0  0  0
   -7.6987   13.9248   20.4691 C   0  0  0  0  0  0  0  0  0  0  0  0
   -7.1146   14.0736   19.1796 O   0  0  0  0  0  0  0  0  0  0  0  0
   -5.9279   14.8713   19.2050 C   0  0  0  0  0  0  0  0  0  0  0  0
   -6.2828   16.3279   19.5484 C   0  0  0  0  0  0  0  0  0  0  0  0
   -6.7165   17.0375   18.3775 O   0  0  0  0  0  0  0  0  0  0  0  0
   -7.4017   16.4323   20.6097 C   0  0  0  0  0  0  0  0  0  0  0  0
   -8.6484   16.7623   19.9754 O   0  0  0  0  0  0  0  0  0  0  0  0
   -7.5256   15.1195   21.3974 C   0  0  0  0  0  0  0  0  0  0  0  0
   -8.6462   15.0838   22.3044 O   0  0  0  0  0  0  0  0  0  0  0  0
   -7.5270   16.6301   18.0342 H   0  0  0  0  0  0  0  0  0  0  0  0
   -8.8862   16.0631   19.3465 H   0  0  0  0  0  0  0  0  0  0  0  0
  -10.8486   15.4666   21.2416 C   0  0  0  0  0  0  0  0  0  0  0  0
  -11.1537   15.8105   20.1115 O   0  0  0  0  0  0  0  0  0  0  0  0
  -11.5935   15.8680   22.2981 O   0  0  0  0  0  0  0  0  0  0  0  0
  -11.3577   15.6029   23.1653 H   0  0  0  0  0  0  0  0  0  0  0  0
  -11.3124   12.3797   22.0006 C   0  0  0  0  0  0  0  0  0  0  0  0
  -11.7015   12.7995   20.6600 N   0  0  0  0  0  0  0  0  0  0  0  0
  -12.2477   13.6590   20.7180 H   0  0  0  0  0  0  0  0  0  0  0  0
  -12.2635   12.0682   20.2244 H   0  0  0  0  0  0  0  0  0  0  0  0
  -12.5673   12.0363   22.8711 C   0  0  0  0  0  0  0  0  0  0  0  0
  -12.7572   10.5576   23.3931 N   0  0  0  0  0  0  0  0  0  0  0  0
  -11.8369    9.5790   22.6620 C   0  0  0  0  0  0  0  0  0  0  0  0
  -14.2111   10.0687   23.0282 C   0  0  0  0  0  0  0  0  0  0  0  0
  -12.6975   10.4656   24.9211 C   0  0  0  0  0  0  0  0  0  0  0  0
  -12.6735    9.1130   25.7027 N   0  0  0  0  0  0  0  0  0  0  0  0
  -13.3574    9.3042   27.0612 C   0  0  0  0  0  0  0  0  0  0  0  0
  -13.3505    7.9999   24.9515 C   0  0  0  0  0  0  0  0  0  0  0  0
  -11.1573    8.8365   25.9371 C   0  0  0  0  0  0  0  0  0  0  0  0
  -11.4157    8.3023   28.4384 C   0  0  0  0  0  0  0  0  0  0  0  0
  -10.5094    8.8284   27.3111 N   0  0  0  0  0  0  0  0  0  0  0  0
   -9.8247   10.1092   27.7777 C   0  0  0  0  0  0  0  0  0  0  0  0
   -9.3473    7.7657   27.2238 C   0  0  0  0  0  0  0  0  0  0  0  0
 32 33  1  0
 33 34  1  0
 33 35  1  0
 33 31  1  0
 31 28  1  0
 28 29  1  0
 28 30  1  0
 28 27  1  0
 27 24  1  0
 24 25  1  0
 24 26  1  0
 24 23  1  0
 23 19  1  0
 19 20  1  0
 19  1  1  0
  2  1  1  0
  2 15  1  0
 15 16  2  0
 15 17  1  0
  2  3  1  0
  4  3  1  0
  4  5  1  0
  5  6  1  0
  6  7  1  0
  7  8  1  0
  7  9  1  0
  9 10  1  0
  9 11  1  0
 11 12  1  0
 12  2  1  0
 11  4  1  0
 20 21  1  0
 20 22  1  0
 17 18  1  0
  8 13  1  0
 10 14  1  0
M  CHG 1  24   1
M  CHG 1  28   1
M  CHG 1  33   1
M  END
> <minimizedAffinity>
1.13305

> <CNNscore>
0.4725176990

> <CNNaffinity>
6.1448569298

> <CNN_VS>
2.9035537243

> <CNNaffinity_variance>
0.1811801940

$$$$



 35 36  0  0  0  0  0  0  0  0999 V2000
  -10.4224   13.4422   22.7056 C   0  0  0  0  0  0  0  0  0  0  0  0
   -9.7647   14.3732   21.6598 C   0  0  0  0  0  0  0  0  0  0  0  0
   -9.1652   13.6520   20.4486 C   0  0  0  0  0  0  0  0  0  0  0  0
   -7.6732   13.8777   20.5638 C   0  0  0  0  0  0  0  0  0  0  0  0
   -7.0785   13.9781   19.2745 O   0  0  0  0  0  0  0  0  0  0  0  0
   -5.9279   14.8272   19.2670 C   0  0  0  0  0  0  0  0  0  0  0  0
   -6.3500   16.2840   19.5218 C   0  0  0  0  0  0  0  0  0  0  0  0
   -6.7978   16.9059   18.3072 O   0  0  0  0  0  0  0  0  0  0  0  0
   -7.4867   16.3998   20.5628 C   0  0  0  0  0  0  0  0  0  0  0  0
   -8.7376   16.6379   19.8966 O   0  0  0  0  0  0  0  0  0  0  0  0
   -7.5644   15.1300   21.4235 C   0  0  0  0  0  0  0  0  0  0  0  0
   -8.6947   15.0971   22.3185 O   0  0  0  0  0  0  0  0  0  0  0  0
   -7.5853   16.4443   17.9789 H   0  0  0  0  0  0  0  0  0  0  0  0
   -8.9365   15.8942   19.3066 H   0  0  0  0  0  0  0  0  0  0  0  0
  -10.8969   15.3214   21.2110 C   0  0  0  0  0  0  0  0  0  0  0  0
  -11.5226   16.0862   21.9267 O   0  0  0  0  0  0  0  0  0  0  0  0
  -11.0597   15.3616   19.8679 O   0  0  0  0  0  0  0  0  0  0  0  0
  -10.5784   14.7736   19.3198 H   0  0  0  0  0  0  0  0  0  0  0  0
  -11.3101   12.3188   22.1432 C   0  0  0  0  0  0  0  0  0  0  0  0
  -11.6695   12.6613   20.7727 N   0  0  0  0  0  0  0  0  0  0  0  0
  -12.1967   13.5345   20.7676 H   0  0  0  0  0  0  0  0  0  0  0  0
  -12.2416   11.9164   20.3749 H   0  0  0  0  0  0  0  0  0  0  0  0
  -12.5854   12.0587   23.0131 C   0  0  0  0  0  0  0  0  0  0  0  0
  -12.8769   10.5942   23.5281 N   0  0  0  0  0  0  0  0  0  0  0  0
  -11.8396    9.5971   23.0090 C   0  0  0  0  0  0  0  0  0  0  0  0
  -14.2381   10.0952   22.9085 C   0  0  0  0  0  0  0  0  0  0  0  0
  -13.1065   10.5424   25.0418 C   0  0  0  0  0  0  0  0  0  0  0  0
  -13.2928    9.2123   25.8401 N   0  0  0  0  0  0  0  0  0  0  0  0
  -13.8339    8.1311   24.8979 C   0  0  0  0  0  0  0  0  0  0  0  0
  -12.0147    8.7343   26.4722 C   0  0  0  0  0  0  0  0  0  0  0  0
  -14.3876    9.5533   26.8961 C   0  0  0  0  0  0  0  0  0  0  0  0
  -14.9226    7.9577   28.8394 C   0  0  0  0  0  0  0  0  0  0  0  0
  -15.3455    8.5247   27.4725 N   0  0  0  0  0  0  0  0  0  0  0  0
  -15.7775    7.3753   26.5673 C   0  0  0  0  0  0  0  0  0  0  0  0
  -16.6774    9.3122   27.7777 C   0  0  0  0  0  0  0  0  0  0  0  0
 32 33  1  0
 33 34  1  0
 33 35  1  0
 33 31  1  0
 31 28  1  0
 28 29  1  0
 28 30  1  0
 28 27  1  0
 27 24  1  0
 24 25  1  0
 24 26  1  0
 24 23  1  0
 23 19  1  0
 19 20  1  0
 19  1  1  0
  2  1  1  0
  2 15  1  0
 15 16  2  0
 15 17  1  0
  2  3  1  0
  4  3  1  0
  4  5  1  0
  5  6  1  0
  6  7  1  0
  7  8  1  0
  7  9  1  0
  9 10  1  0
  9 11  1  0
 11 12  1  0
 12  2  1  0
 11  4  1  0
 20 21  1  0
 20 22  1  0
 17 18  1  0
  8 13  1  0
 10 14  1  0
M  CHG 1  24   1
M  CHG 1  28   1
M  CHG 1  33   1
M  END
> <minimizedAffinity>
-1.75287

> <CNNscore>
0.4190100133

> <CNNaffinity>
5.9467616081

> <CNN_VS>
2.4917526245

> <CNNaffinity_variance>
0.1527739018

$$$$



 35 36  0  0  0  0  0  0  0  0999 V2000
   -3.0120   13.0175   30.5407 C   0  0  0  0  0  0  0  0  0  0  0  0
   -3.7355   11.6917   30.8751 C   0  0  0  0  0  0  0  0  0  0  0  0
   -4.4723   11.0499   29.6955 C   0  0  0  0  0  0  0  0  0  0  0  0
   -5.9380   11.1347   30.0628 C   0  0  0  0  0  0  0  0  0  0  0  0
   -6.6500   10.0123   29.5536 O   0  0  0  0  0  0  0  0  0  0  0  0
   -7.7671    9.6553   30.3721 C   0  0  0  0  0  0  0  0  0  0  0  0
   -7.2740    9.1149   31.7250 C   0  0  0  0  0  0  0  0  0  0  0  0
   -6.9243    7.7257   31.6231 O   0  0  0  0  0  0  0  0  0  0  0  0
   -6.0394    9.8787   32.2555 C   0  0  0  0  0  0  0  0  0  0  0  0
   -4.8509    9.1018   32.0333 O   0  0  0  0  0  0  0  0  0  0  0  0
   -5.9218   11.2536   31.5810 C   0  0  0  0  0  0  0  0  0  0  0  0
   -4.7125   11.9667   31.9108 O   0  0  0  0  0  0  0  0  0  0  0  0
   -6.1878    7.6225   31.0003 H   0  0  0  0  0  0  0  0  0  0  0  0
   -4.7346    8.9538   31.0817 H   0  0  0  0  0  0  0  0  0  0  0  0
   -2.6206   10.7533   31.3838 C   0  0  0  0  0  0  0  0  0  0  0  0
   -2.3497    9.6494   30.9403 O   0  0  0  0  0  0  0  0  0  0  0  0
   -1.8186   11.3287   32.3099 O   0  0  0  0  0  0  0  0  0  0  0  0
   -2.0282   12.1766   32.6494 H   0  0  0  0  0  0  0  0  0  0  0  0
   -3.7903   14.3069   30.8541 C   0  0  0  0  0  0  0  0  0  0  0  0
   -3.9387   15.0645   29.6176 N   0  0  0  0  0  0  0  0  0  0  0  0
   -3.0170   15.3127   29.2582 H   0  0  0  0  0  0  0  0  0  0  0  0
   -4.4720   15.9143   29.8015 H   0  0  0  0  0  0  0  0  0  0  0  0
   -3.1105   15.1717   31.9679 C   0  0  0  0  0  0  0  0  0  0  0  0
   -1.8874   16.0941   31.5830 N   0  0  0  0  0  0  0  0  0  0  0  0
   -1.6384   16.0997   30.0739 C   0  0  0  0  0  0  0  0  0  0  0  0
   -0.5698   15.4773   32.1909 C   0  0  0  0  0  0  0  0  0  0  0  0
   -1.9832   17.4855   32.2166 C   0  0  0  0  0  0  0  0  0  0  0  0
   -1.2108   18.7325   31.6786 N   0  0  0  0  0  0  0  0  0  0  0  0
    0.1972   18.7525   32.2844 C   0  0  0  0  0  0  0  0  0  0  0  0
   -1.1125   18.7478   30.1780 C   0  0  0  0  0  0  0  0  0  0  0  0
   -2.0151   19.9466   32.2346 C   0  0  0  0  0  0  0  0  0  0  0  0
   -3.9826   21.5908   32.0496 C   0  0  0  0  0  0  0  0  0  0  0  0
   -2.7878   20.9140   31.3543 N   0  0  0  0  0  0  0  0  0  0  0  0
   -3.2241   20.4232   29.9774 C   0  0  0  0  0  0  0  0  0  0  0  0
   -1.7929   22.1009   31.0562 C   0  0  0  0  0  0  0  0  0  0  0  0
 32 33  1  0
 33 34  1  0
 33 35  1  0
 33 31  1  0
 31 28  1  0
 28 29  1  0
 28 30  1  0
 28 27  1  0
 27 24  1  0
 24 25  1  0
 24 26  1  0
 24 23  1  0
 23 19  1  0
 19 20  1  0
 19  1  1  0
  2  1  1  0
  2 15  1  0
 15 16  2  0
 15 17  1  0
  2  3  1  0
  4  3  1  0
  4  5  1  0
  5  6  1  0
  6  7  1  0
  7  8  1  0
  7  9  1  0
  9 10  1  0
  9 11  1  0
 11 12  1  0
 12  2  1  0
 11  4  1  0
 20 21  1  0
 20 22  1  0
 17 18  1  0
  8 13  1  0
 10 14  1  0
M  CHG 1  24   1
M  CHG 1  28   1
M  CHG 1  33   1
M  END
> <minimizedAffinity>
0.61857

> <CNNscore>
0.4140245318

> <CNNaffinity>
4.7270970345

> <CNN_VS>
1.9571341276

> <CNNaffinity_variance>
0.2699223161

$$$$



 35 36  0  0  0  0  0  0  0  0999 V2000
  -10.0404   13.2066   19.6734 C   0  0  0  0  0  0  0  0  0  0  0  0
   -9.3406   14.5548   19.9661 C   0  0  0  0  0  0  0  0  0  0  0  0
   -8.2193   14.9191   18.9881 C   0  0  0  0  0  0  0  0  0  0  0  0
   -6.9541   14.8767   19.8175 C   0  0  0  0  0  0  0  0  0  0  0  0
   -6.0214   15.8509   19.3625 O   0  0  0  0  0  0  0  0  0  0  0  0
   -5.1866   16.3428   20.4143 C   0  0  0  0  0  0  0  0  0  0  0  0
   -6.0250   17.1646   21.4078 C   0  0  0  0  0  0  0  0  0  0  0  0
   -6.1996   18.5104   20.9378 O   0  0  0  0  0  0  0  0  0  0  0  0
   -7.4267   16.5583   21.6462 C   0  0  0  0  0  0  0  0  0  0  0  0
   -8.4126   17.3008   20.9100 O   0  0  0  0  0  0  0  0  0  0  0  0
   -7.4517   15.0764   21.2428 C   0  0  0  0  0  0  0  0  0  0  0  0
   -8.7625   14.4773   21.2937 O   0  0  0  0  0  0  0  0  0  0  0  0
   -6.6938   18.4998   20.1032 H   0  0  0  0  0  0  0  0  0  0  0  0
   -8.2137   17.2505   19.9619 H   0  0  0  0  0  0  0  0  0  0  0  0
  -10.4694   15.6054   19.9008 C   0  0  0  0  0  0  0  0  0  0  0  0
  -11.2141   15.9209   20.8143 O   0  0  0  0  0  0  0  0  0  0  0  0
  -10.4844   16.3027   18.7407 O   0  0  0  0  0  0  0  0  0  0  0  0
   -9.9117   16.0591   18.0402 H   0  0  0  0  0  0  0  0  0  0  0  0
   -9.5410   11.9988   20.4848 C   0  0  0  0  0  0  0  0  0  0  0  0
   -9.1729   10.9407   19.5521 N   0  0  0  0  0  0  0  0  0  0  0  0
   -9.9929   10.6620   19.0133 H   0  0  0  0  0  0  0  0  0  0  0  0
   -8.8185   10.1376   20.0716 H   0  0  0  0  0  0  0  0  0  0  0  0
  -10.5919   11.4911   21.5282 C   0  0  0  0  0  0  0  0  0  0  0  0
  -11.5998   12.5261   22.1671 N   0  0  0  0  0  0  0  0  0  0  0  0
  -12.5593   13.0974   21.1219 C   0  0  0  0  0  0  0  0  0  0  0  0
  -10.7913   13.7797   22.6774 C   0  0  0  0  0  0  0  0  0  0  0  0
  -12.2825   11.9767   23.4236 C   0  0  0  0  0  0  0  0  0  0  0  0
  -12.8766   10.5350   23.5212 N   0  0  0  0  0  0  0  0  0  0  0  0
  -14.1983   10.4817   22.7467 C   0  0  0  0  0  0  0  0  0  0  0  0
  -11.9392    9.4868   22.9883 C   0  0  0  0  0  0  0  0  0  0  0  0
  -13.1755   10.3493   25.0398 C   0  0  0  0  0  0  0  0  0  0  0  0
  -13.5974    7.8361   24.7013 C   0  0  0  0  0  0  0  0  0  0  0  0
  -13.3860    8.9940   25.6930 N   0  0  0  0  0  0  0  0  0  0  0  0
  -14.4290    8.8978   26.8022 C   0  0  0  0  0  0  0  0  0  0  0  0
  -12.0197    8.6497   26.4015 C   0  0  0  0  0  0  0  0  0  0  0  0
 32 33  1  0
 33 34  1  0
 33 35  1  0
 33 31  1  0
 31 28  1  0
 28 29  1  0
 28 30  1  0
 28 27  1  0
 27 24  1  0
 24 25  1  0
 24 26  1  0
 24 23  1  0
 23 19  1  0
 19 20  1  0
 19  1  1  0
  2  1  1  0
  2 15  1  0
 15 16  2  0
 15 17  1  0
  2  3  1  0
  4  3  1  0
  4  5  1  0
  5  6  1  0
  6  7  1  0
  7  8  1  0
  7  9  1  0
  9 10  1  0
  9 11  1  0
 11 12  1  0
 12  2  1  0
 11  4  1  0
 20 21  1  0
 20 22  1  0
 17 18  1  0
  8 13  1  0
 10 14  1  0
M  CHG 1  24   1
M  CHG 1  28   1
M  CHG 1  33   1
M  END
> <minimizedAffinity>
4.66181

> <CNNscore>
0.4036528766

> <CNNaffinity>
5.9943671227

> <CNN_VS>
2.4196436405

> <CNNaffinity_variance>
0.0733962283

$$$$



 35 36  0  0  0  0  0  0  0  0999 V2000
   -4.1800   22.2912   12.2122 C   0  0  0  0  0  0  0  0  0  0  0  0
   -3.2873   23.1517   11.2872 C   0  0  0  0  0  0  0  0  0  0  0  0
   -3.7623   24.5963   11.1031 C   0  0  0  0  0  0  0  0  0  0  0  0
   -4.1617   24.6892    9.6462 C   0  0  0  0  0  0  0  0  0  0  0  0
   -3.8937   25.9895    9.1330 O   0  0  0  0  0  0  0  0  0  0  0  0
   -3.5826   25.9737    7.7373 C   0  0  0  0  0  0  0  0  0  0  0  0
   -2.2330   25.2722    7.5090 C   0  0  0  0  0  0  0  0  0  0  0  0
   -1.1421   26.1807    7.7263 O   0  0  0  0  0  0  0  0  0  0  0  0
   -2.0313   24.0550    8.4401 C   0  0  0  0  0  0  0  0  0  0  0  0
   -1.1452   24.4040    9.5164 O   0  0  0  0  0  0  0  0  0  0  0  0
   -3.3792   23.5615    8.9864 C   0  0  0  0  0  0  0  0  0  0  0  0
   -3.2639   22.5232    9.9806 O   0  0  0  0  0  0  0  0  0  0  0  0
   -1.1463   26.4759    8.6502 H   0  0  0  0  0  0  0  0  0  0  0  0
   -1.5346   25.1256   10.0347 H   0  0  0  0  0  0  0  0  0  0  0  0
   -1.8946   23.1274   11.9520 C   0  0  0  0  0  0  0  0  0  0  0  0
   -1.3141   24.0810   12.4441 O   0  0  0  0  0  0  0  0  0  0  0  0
   -1.3927   21.8786   12.0961 O   0  0  0  0  0  0  0  0  0  0  0  0
   -1.8398   21.1474   11.7174 H   0  0  0  0  0  0  0  0  0  0  0  0
   -4.5610   20.9003   11.6765 C   0  0  0  0  0  0  0  0  0  0  0  0
   -3.6882   20.5876   10.5516 N   0  0  0  0  0  0  0  0  0  0  0  0
   -3.8260   21.2768    9.8125 H   0  0  0  0  0  0  0  0  0  0  0  0
   -3.9118   19.6582   10.1959 H   0  0  0  0  0  0  0  0  0  0  0  0
   -6.0684   20.7989   11.2665 C   0  0  0  0  0  0  0  0  0  0  0  0
   -6.4598   20.9396    9.7426 N   0  0  0  0  0  0  0  0  0  0  0  0
   -7.3894   19.8113    9.2928 C   0  0  0  0  0  0  0  0  0  0  0  0
   -5.1658   20.7499    8.8622 C   0  0  0  0  0  0  0  0  0  0  0  0
   -6.9538   22.3472    9.3941 C   0  0  0  0  0  0  0  0  0  0  0  0
   -7.3970   22.7739    7.9580 N   0  0  0  0  0  0  0  0  0  0  0  0
   -6.1780   23.2961    7.1892 C   0  0  0  0  0  0  0  0  0  0  0  0
   -8.0302   21.6466    7.1902 C   0  0  0  0  0  0  0  0  0  0  0  0
   -8.3834   23.9565    8.2006 C   0  0  0  0  0  0  0  0  0  0  0  0
   -9.1591   26.2682    7.3866 C   0  0  0  0  0  0  0  0  0  0  0  0
   -8.0193   25.4128    7.9679 N   0  0  0  0  0  0  0  0  0  0  0  0
   -6.7336   25.7066    7.2011 C   0  0  0  0  0  0  0  0  0  0  0  0
   -7.7742   26.0213    9.4022 C   0  0  0  0  0  0  0  0  0  0  0  0
 32 33  1  0
 33 34  1  0
 33 35  1  0
 33 31  1  0
 31 28  1  0
 28 29  1  0
 28 30  1  0
 28 27  1  0
 27 24  1  0
 24 25  1  0
 24 26  1  0
 24 23  1  0
 23 19  1  0
 19 20  1  0
 19  1  1  0
  2  1  1  0
  2 15  1  0
 15 16  2  0
 15 17  1  0
  2  3  1  0
  4  3  1  0
  4  5  1  0
  5  6  1  0
  6  7  1  0
  7  8  1  0
  7  9  1  0
  9 10  1  0
  9 11  1  0
 11 12  1  0
 12  2  1  0
 11  4  1  0
 20 21  1  0
 20 22  1  0
 17 18  1  0
  8 13  1  0
 10 14  1  0
M  CHG 1  24   1
M  CHG 1  28   1
M  CHG 1  33   1
M  END
> <minimizedAffinity>
-2.04018

> <CNNscore>
0.3949626982

> <CNNaffinity>
4.5065350533

> <CNN_VS>
1.7799131870

> <CNNaffinity_variance>
0.0660271049

$$$$



 35 36  0  0  0  0  0  0  0  0999 V2000
   -6.6088   15.0244   23.6592 C   0  0  0  0  0  0  0  0  0  0  0  0
   -7.4805   14.8906   22.3882 C   0  0  0  0  0  0  0  0  0  0  0  0
   -8.9391   15.3240   22.5643 C   0  0  0  0  0  0  0  0  0  0  0  0
   -9.7423   14.0510   22.4066 C   0  0  0  0  0  0  0  0  0  0  0  0
  -11.0005   14.3221   21.7988 O   0  0  0  0  0  0  0  0  0  0  0  0
  -11.4805   13.2229   21.0201 C   0  0  0  0  0  0  0  0  0  0  0  0
  -10.5834   13.0229   19.7869 C   0  0  0  0  0  0  0  0  0  0  0  0
  -10.9623   13.9176   18.7293 O   0  0  0  0  0  0  0  0  0  0  0  0
   -9.0874   13.2582   20.0962 C   0  0  0  0  0  0  0  0  0  0  0  0
   -8.6841   14.5485   19.6084 O   0  0  0  0  0  0  0  0  0  0  0  0
   -8.8210   13.1417   21.6044 C   0  0  0  0  0  0  0  0  0  0  0  0
   -7.4776   13.4958   21.9913 O   0  0  0  0  0  0  0  0  0  0  0  0
  -10.8321   14.8342   19.0190 H   0  0  0  0  0  0  0  0  0  0  0  0
   -9.2015   15.2383   20.0528 H   0  0  0  0  0  0  0  0  0  0  0  0
   -6.7817   15.7793   21.3374 C   0  0  0  0  0  0  0  0  0  0  0  0
   -6.6646   16.9929   21.3830 O   0  0  0  0  0  0  0  0  0  0  0  0
   -6.1388   15.0705   20.3801 O   0  0  0  0  0  0  0  0  0  0  0  0
   -6.2299   14.1385   20.3465 H   0  0  0  0  0  0  0  0  0  0  0  0
   -6.6289   13.8224   24.6190 C   0  0  0  0  0  0  0  0  0  0  0  0
   -7.9890   13.6557   25.1163 N   0  0  0  0  0  0  0  0  0  0  0  0
   -8.2691   14.4929   25.6274 H   0  0  0  0  0  0  0  0  0  0  0  0
   -8.0269   12.8487   25.7389 H   0  0  0  0  0  0  0  0  0  0  0  0
   -5.6105   13.9695   25.7987 C   0  0  0  0  0  0  0  0  0  0  0  0
   -5.3292   12.7241   26.7288 N   0  0  0  0  0  0  0  0  0  0  0  0
   -4.9347   11.4905   25.9152 C   0  0  0  0  0  0  0  0  0  0  0  0
   -6.6711   12.3048   27.4425 C   0  0  0  0  0  0  0  0  0  0  0  0
   -4.3749   13.0585   27.8796 C   0  0  0  0  0  0  0  0  0  0  0  0
   -4.2280   12.1769   29.1610 N   0  0  0  0  0  0  0  0  0  0  0  0
   -3.9617   13.0834   30.3680 C   0  0  0  0  0  0  0  0  0  0  0  0
   -5.4450   11.3337   29.4246 C   0  0  0  0  0  0  0  0  0  0  0  0
   -2.9566   11.3174   28.8871 C   0  0  0  0  0  0  0  0  0  0  0  0
   -1.2449   11.3113   30.8050 C   0  0  0  0  0  0  0  0  0  0  0  0
   -2.2463   10.5066   29.9575 N   0  0  0  0  0  0  0  0  0  0  0  0
   -1.5992    9.1911   29.5354 C   0  0  0  0  0  0  0  0  0  0  0  0
   -3.3683   10.0863   30.9831 C   0  0  0  0  0  0  0  0  0  0  0  0
 32 33  1  0
 33 34  1  0
 33 35  1  0
 33 31  1  0
 31 28  1  0
 28 29  1  0
 28 30  1  0
 28 27  1  0
 27 24  1  0
 24 25  1  0
 24 26  1  0
 24 23  1  0
 23 19  1  0
 19 20  1  0
 19  1  1  0
  2  1  1  0
  2 15  1  0
 15 16  2  0
 15 17  1  0
  2  3  1  0
  4  3  1  0
  4  5  1  0
  5  6  1  0
  6  7  1  0
  7  8  1  0
  7  9  1  0
  9 10  1  0
  9 11  1  0
 11 12  1  0
 12  2  1  0
 11  4  1  0
 20 21  1  0
 20 22  1  0
 17 18  1  0
  8 13  1  0
 10 14  1  0
M  CHG 1  24   1
M  CHG 1  28   1
M  CHG 1  33   1
M  END
> <minimizedAffinity>
0.18416

> <CNNscore>
0.3431341946

> <CNNaffinity>
5.9231052399

> <CNN_VS>
2.0324199200

> <CNNaffinity_variance>
0.1294666827

$$$$



 35 36  0  0  0  0  0  0  0  0999 V2000
   -4.8680    9.5759   29.7115 C   0  0  0  0  0  0  0  0  0  0  0  0
   -3.6481   10.4016   30.1839 C   0  0  0  0  0  0  0  0  0  0  0  0
   -2.3439   10.0990   29.4398 C   0  0  0  0  0  0  0  0  0  0  0  0
   -1.4426    9.4694   30.4799 C   0  0  0  0  0  0  0  0  0  0  0  0
   -0.0824    9.8156   30.2428 O   0  0  0  0  0  0  0  0  0  0  0  0
    0.6853    9.8754   31.4478 C   0  0  0  0  0  0  0  0  0  0  0  0
    0.2158   11.0592   32.3101 C   0  0  0  0  0  0  0  0  0  0  0  0
    0.8302   12.2826   31.8761 O   0  0  0  0  0  0  0  0  0  0  0  0
   -1.3169   11.2549   32.2665 C   0  0  0  0  0  0  0  0  0  0  0  0
   -1.6454   12.3524   31.3988 O   0  0  0  0  0  0  0  0  0  0  0  0
   -2.0143    9.9682   31.8003 C   0  0  0  0  0  0  0  0  0  0  0  0
   -3.4334   10.1144   31.5890 O   0  0  0  0  0  0  0  0  0  0  0  0
    0.5548   12.4778   30.9667 H   0  0  0  0  0  0  0  0  0  0  0  0
   -1.3351   12.1584   30.5004 H   0  0  0  0  0  0  0  0  0  0  0  0
   -4.0605   11.8726   29.9636 C   0  0  0  0  0  0  0  0  0  0  0  0
   -5.1028   12.3913   30.3286 O   0  0  0  0  0  0  0  0  0  0  0  0
   -3.0704   12.6328   29.4402 O   0  0  0  0  0  0  0  0  0  0  0  0
   -2.2707   12.2327   29.1604 H   0  0  0  0  0  0  0  0  0  0  0  0
   -6.2493   10.1461   30.0766 C   0  0  0  0  0  0  0  0  0  0  0  0
   -6.5104    9.8510   31.4801 N   0  0  0  0  0  0  0  0  0  0  0  0
   -6.5217    8.8406   31.6187 H   0  0  0  0  0  0  0  0  0  0  0  0
   -7.4144   10.2409   31.7470 H   0  0  0  0  0  0  0  0  0  0  0  0
   -7.3947    9.5971   29.1617 C   0  0  0  0  0  0  0  0  0  0  0  0
   -8.3665   10.6205   28.4521 N   0  0  0  0  0  0  0  0  0  0  0  0
   -7.8445   11.0311   27.0743 C   0  0  0  0  0  0  0  0  0  0  0  0
   -8.3846   11.9646   29.2760 C   0  0  0  0  0  0  0  0  0  0  0  0
   -9.8233   10.1471   28.4647 C   0  0  0  0  0  0  0  0  0  0  0  0
  -10.4328    9.2049   27.3776 N   0  0  0  0  0  0  0  0  0  0  0  0
   -9.5490    9.2428   26.1258 C   0  0  0  0  0  0  0  0  0  0  0  0
  -10.5684    7.7851   27.8543 C   0  0  0  0  0  0  0  0  0  0  0  0
  -11.8098    9.8537   27.0413 C   0  0  0  0  0  0  0  0  0  0  0  0
  -11.8478    8.7140   24.7373 C   0  0  0  0  0  0  0  0  0  0  0  0
  -12.6245    9.4996   25.8089 N   0  0  0  0  0  0  0  0  0  0  0  0
  -13.4106   10.6198   25.1349 C   0  0  0  0  0  0  0  0  0  0  0  0
  -13.7253    8.4859   26.3072 C   0  0  0  0  0  0  0  0  0  0  0  0
 32 33  1  0
 33 34  1  0
 33 35  1  0
 33 31  1  0
 31 28  1  0
 28 29  1  0
 28 30  1  0
 28 27  1  0
 27 24  1  0
 24 25  1  0
 24 26  1  0
 24 23  1  0
 23 19  1  0
 19 20  1  0
 19  1  1  0
  2  1  1  0
  2 15  1  0
 15 16  2  0
 15 17  1  0
  2  3  1  0
  4  3  1  0
  4  5  1  0
  5  6  1  0
  6  7  1  0
  7  8  1  0
  7  9  1  0
  9 10  1  0
  9 11  1  0
 11 12  1  0
 12  2  1  0
 11  4  1  0
 20 21  1  0
 20 22  1  0
 17 18  1  0
  8 13  1  0
 10 14  1  0
M  CHG 1  24   1
M  CHG 1  28   1
M  CHG 1  33   1
M  END
> <minimizedAffinity>
3.21282

> <CNNscore>
0.3302088082

> <CNNaffinity>
4.9694666862

> <CNN_VS>
1.6409616470

> <CNNaffinity_variance>
0.0507364571

$$$$



 35 36  0  0  0  0  0  0  0  0999 V2000
   -3.7344   21.2027   13.3832 C   0  0  0  0  0  0  0  0  0  0  0  0
   -2.9009   21.9440   12.3114 C   0  0  0  0  0  0  0  0  0  0  0  0
   -3.0747   23.4658   12.3055 C   0  0  0  0  0  0  0  0  0  0  0  0
   -3.7553   23.7721   10.9889 C   0  0  0  0  0  0  0  0  0  0  0  0
   -3.3276   25.0317   10.4825 O   0  0  0  0  0  0  0  0  0  0  0  0
   -3.3435   25.0813    9.0534 C   0  0  0  0  0  0  0  0  0  0  0  0
   -2.2661   24.1427    8.4844 C   0  0  0  0  0  0  0  0  0  0  0  0
   -0.9815   24.7849    8.4771 O   0  0  0  0  0  0  0  0  0  0  0  0
   -2.1369   22.8295    9.2895 C   0  0  0  0  0  0  0  0  0  0  0  0
   -0.9806   22.8894   10.1408 O   0  0  0  0  0  0  0  0  0  0  0  0
   -3.4058   22.5739   10.1163 C   0  0  0  0  0  0  0  0  0  0  0  0
   -3.3054   21.4469   11.0106 O   0  0  0  0  0  0  0  0  0  0  0  0
   -0.7166   24.9884    9.3877 H   0  0  0  0  0  0  0  0  0  0  0  0
   -1.0773   23.6245   10.7663 H   0  0  0  0  0  0  0  0  0  0  0  0
   -1.4362   21.5743   12.6280 C   0  0  0  0  0  0  0  0  0  0  0  0
   -0.6623   20.9942   11.8842 O   0  0  0  0  0  0  0  0  0  0  0  0
   -0.9930   22.0972   13.7952 O   0  0  0  0  0  0  0  0  0  0  0  0
   -1.5888   22.5424   14.3652 H   0  0  0  0  0  0  0  0  0  0  0  0
   -5.0804   20.6273   12.9102 C   0  0  0  0  0  0  0  0  0  0  0  0
   -4.8404   19.3050   12.3453 N   0  0  0  0  0  0  0  0  0  0  0  0
   -4.2145   19.3861   11.5440 H   0  0  0  0  0  0  0  0  0  0  0  0
   -5.7261   18.8977   12.0451 H   0  0  0  0  0  0  0  0  0  0  0  0
   -5.8111   21.5558   11.8832 C   0  0  0  0  0  0  0  0  0  0  0  0
   -6.3894   20.9250   10.5555 N   0  0  0  0  0  0  0  0  0  0  0  0
   -7.8064   20.3861   10.7579 C   0  0  0  0  0  0  0  0  0  0  0  0
   -5.5397   19.6505   10.1819 C   0  0  0  0  0  0  0  0  0  0  0  0
   -6.2295   21.8555    9.3491 C   0  0  0  0  0  0  0  0  0  0  0  0
   -6.5655   21.4317    7.8834 N   0  0  0  0  0  0  0  0  0  0  0  0
   -5.2849   20.9492    7.1927 C   0  0  0  0  0  0  0  0  0  0  0  0
   -7.6089   20.3505    7.8196 C   0  0  0  0  0  0  0  0  0  0  0  0
   -7.0361   22.7535    7.2041 C   0  0  0  0  0  0  0  0  0  0  0  0
   -6.0492   25.1218    7.3642 C   0  0  0  0  0  0  0  0  0  0  0  0
   -7.0591   24.0976    7.9118 N   0  0  0  0  0  0  0  0  0  0  0  0
   -6.9915   24.0956    9.4358 C   0  0  0  0  0  0  0  0  0  0  0  0
   -8.4659   24.7271    7.5772 C   0  0  0  0  0  0  0  0  0  0  0  0
 32 33  1  0
 33 34  1  0
 33 35  1  0
 33 31  1  0
 31 28  1  0
 28 29  1  0
 28 30  1  0
 28 27  1  0
 27 24  1  0
 24 25  1  0
 24 26  1  0
 24 23  1  0
 23 19  1  0
 19 20  1  0
 19  1  1  0
  2  1  1  0
  2 15  1  0
 15 16  2  0
 15 17  1  0
  2  3  1  0
  4  3  1  0
  4  5  1  0
  5  6  1  0
  6  7  1  0
  7  8  1  0
  7  9  1  0
  9 10  1  0
  9 11  1  0
 11 12  1  0
 12  2  1  0
 11  4  1  0
 20 21  1  0
 20 22  1  0
 17 18  1  0
  8 13  1  0
 10 14  1  0
M  CHG 1  24   1
M  CHG 1  28   1
M  CHG 1  33   1
M  END
> <minimizedAffinity>
2.75584

> <CNNscore>
0.3288613856

> <CNNaffinity>
4.0551295280

> <CNN_VS>
1.3335754871

> <CNNaffinity_variance>
0.2590704262

$$$$
