


 18 18  0  0  0  0  0  0  0  0999 V2000
   64.8772   34.5626   25.3318 C   0  0  0  0  0  0  0  0  0  0  0  0
   66.1706   34.2499   25.7768 C   0  0  0  0  0  0  0  0  0  0  0  0
   66.3310   33.5180   26.9516 C   0  0  0  0  0  0  0  0  0  0  0  0
   65.1892   33.1210   27.6640 C   0  0  0  0  0  0  0  0  0  0  0  0
   65.3183   32.3956   28.8173 O   0  0  0  0  0  0  0  0  0  0  0  0
   63.9070   33.4504   27.2405 C   0  0  0  0  0  0  0  0  0  0  0  0
   63.7578   34.1850   26.0719 C   0  0  0  0  0  0  0  0  0  0  0  0
   62.5235   34.5214   25.6729 F   0  0  0  0  0  0  0  0  0  0  0  0
   66.1695   32.1581   29.1286 H   0  0  0  0  0  0  0  0  0  0  0  0
   65.1852   36.6830   24.0833 N   0  0  0  0  0  0  0  0  0  0  0  0
   64.7315   35.3626   24.1073 C   0  0  0  0  0  0  0  0  0  0  0  0
   64.1635   34.8191   23.1616 O   0  0  0  0  0  0  0  0  0  0  0  0
   66.4205   37.7031   22.1891 C   0  0  0  0  0  0  0  0  0  0  0  0
   65.0665   37.4104   22.8189 C   0  0  0  0  0  0  0  0  0  0  0  0
   65.6803   37.4250   25.2487 C   0  0  0  0  0  0  0  0  0  0  0  0
   65.0605   38.8061   25.3870 C   0  0  0  0  0  0  0  0  0  0  0  0
   67.5225   33.1289   27.5059 O   0  0  0  0  0  0  0  0  0  0  0  0
   68.6548   33.9437   27.2187 C   0  0  0  0  0  0  0  0  0  0  0  0
 13 14  1  0
 14 10  1  0
 10 15  1  0
 15 16  1  0
 10 11  1  0
 11 12  2  0
 11  1  1  0
  1  2  2  0
  2  3  1  0
  3 17  1  0
 17 18  1  0
  3  4  2  0
  4  5  1  0
  4  6  1  0
  6  7  2  0
  7  8  1  0
  7  1  1  0
  5  9  1  0
M  END
> <minimizedAffinity>
-6.90967

> <CNNscore>
0.8067158461

> <CNNaffinity>
5.6083221436

> <CNN_VS>
4.5243225098

> <CNNaffinity_variance>
0.0722239316

$$$$



 18 18  0  0  0  0  0  0  0  0999 V2000
   66.7629   36.5027   25.9448 C   0  0  0  0  0  0  0  0  0  0  0  0
   67.2765   35.3052   26.4652 C   0  0  0  0  0  0  0  0  0  0  0  0
   66.4100   34.2451   26.7241 C   0  0  0  0  0  0  0  0  0  0  0  0
   65.0409   34.4099   26.4644 C   0  0  0  0  0  0  0  0  0  0  0  0
   64.1691   33.3824   26.7034 O   0  0  0  0  0  0  0  0  0  0  0  0
   64.5243   35.6030   25.9729 C   0  0  0  0  0  0  0  0  0  0  0  0
   65.3949   36.6553   25.7237 C   0  0  0  0  0  0  0  0  0  0  0  0
   64.8963   37.8132   25.2694 F   0  0  0  0  0  0  0  0  0  0  0  0
   64.4871   32.5657   27.0349 H   0  0  0  0  0  0  0  0  0  0  0  0
   67.9525   38.5307   26.7333 N   0  0  0  0  0  0  0  0  0  0  0  0
   67.6897   37.6189   25.7089 C   0  0  0  0  0  0  0  0  0  0  0  0
   68.1603   37.7110   24.5764 O   0  0  0  0  0  0  0  0  0  0  0  0
   68.2779   40.8473   25.9075 C   0  0  0  0  0  0  0  0  0  0  0  0
   68.9280   39.5864   26.4582 C   0  0  0  0  0  0  0  0  0  0  0  0
   67.2574   38.5696   28.0253 C   0  0  0  0  0  0  0  0  0  0  0  0
   68.0035   39.3665   29.0831 C   0  0  0  0  0  0  0  0  0  0  0  0
   66.7604   33.0166   27.2204 O   0  0  0  0  0  0  0  0  0  0  0  0
   67.5182   32.1738   26.3579 C   0  0  0  0  0  0  0  0  0  0  0  0
 13 14  1  0
 14 10  1  0
 10 15  1  0
 15 16  1  0
 10 11  1  0
 11 12  2  0
 11  1  1  0
  1  2  2  0
  2  3  1  0
  3 17  1  0
 17 18  1  0
  3  4  2  0
  4  5  1  0
  4  6  1  0
  6  7  2  0
  7  8  1  0
  7  1  1  0
  5  9  1  0
M  END
> <minimizedAffinity>
-5.29568

> <CNNscore>
0.7309233546

> <CNNaffinity>
4.9711265564

> <CNN_VS>
3.6335124969

> <CNNaffinity_variance>
0.0064245611

$$$$



 18 18  0  0  0  0  0  0  0  0999 V2000
   64.8685   34.3986   25.6924 C   0  0  0  0  0  0  0  0  0  0  0  0
   63.7025   34.0711   26.4008 C   0  0  0  0  0  0  0  0  0  0  0  0
   63.7951   33.2678   27.5356 C   0  0  0  0  0  0  0  0  0  0  0  0
   65.0566   32.7998   27.9336 C   0  0  0  0  0  0  0  0  0  0  0  0
   65.1764   32.0147   29.0482 O   0  0  0  0  0  0  0  0  0  0  0  0
   66.2109   33.1007   27.2204 C   0  0  0  0  0  0  0  0  0  0  0  0
   66.1077   33.8969   26.0877 C   0  0  0  0  0  0  0  0  0  0  0  0
   67.2165   34.1711   25.3869 F   0  0  0  0  0  0  0  0  0  0  0  0
   64.4163   31.7945   29.5500 H   0  0  0  0  0  0  0  0  0  0  0  0
   65.1031   36.5698   24.5174 N   0  0  0  0  0  0  0  0  0  0  0  0
   64.7445   35.2208   24.4803 C   0  0  0  0  0  0  0  0  0  0  0  0
   64.2785   34.6659   23.4866 O   0  0  0  0  0  0  0  0  0  0  0  0
   66.3580   37.4393   22.5619 C   0  0  0  0  0  0  0  0  0  0  0  0
   65.0137   37.3226   23.2655 C   0  0  0  0  0  0  0  0  0  0  0  0
   65.4683   37.3113   25.7300 C   0  0  0  0  0  0  0  0  0  0  0  0
   65.0843   38.7809   25.6719 C   0  0  0  0  0  0  0  0  0  0  0  0
   62.7535   32.8722   28.3338 O   0  0  0  0  0  0  0  0  0  0  0  0
   62.2759   31.5436   28.1456 C   0  0  0  0  0  0  0  0  0  0  0  0
 13 14  1  0
 14 10  1  0
 10 15  1  0
 15 16  1  0
 10 11  1  0
 11 12  2  0
 11  1  1  0
  1  2  2  0
  2  3  1  0
  3 17  1  0
 17 18  1  0
  3  4  2  0
  4  5  1  0
  4  6  1  0
  6  7  2  0
  7  8  1  0
  7  1  1  0
  5  9  1  0
M  END
> <minimizedAffinity>
-6.81224

> <CNNscore>
0.7190290689

> <CNNaffinity>
5.1818451881

> <CNN_VS>
3.7258973122

> <CNNaffinity_variance>
0.0986687839

$$$$



 18 18  0  0  0  0  0  0  0  0999 V2000
   66.6239   36.3677   26.4832 C   0  0  0  0  0  0  0  0  0  0  0  0
   67.2253   35.1525   26.8439 C   0  0  0  0  0  0  0  0  0  0  0  0
   66.4540   33.9926   26.8813 C   0  0  0  0  0  0  0  0  0  0  0  0
   65.0896   34.0755   26.5647 C   0  0  0  0  0  0  0  0  0  0  0  0
   64.3108   32.9503   26.5872 O   0  0  0  0  0  0  0  0  0  0  0  0
   64.4841   35.2815   26.2316 C   0  0  0  0  0  0  0  0  0  0  0  0
   65.2598   36.4326   26.2029 C   0  0  0  0  0  0  0  0  0  0  0  0
   64.6738   37.5996   25.9023 F   0  0  0  0  0  0  0  0  0  0  0  0
   64.6900   32.1224   26.8080 H   0  0  0  0  0  0  0  0  0  0  0  0
   67.4636   38.4102   25.3550 N   0  0  0  0  0  0  0  0  0  0  0  0
   67.4485   37.5844   26.4809 C   0  0  0  0  0  0  0  0  0  0  0  0
   68.1297   37.7870   27.4847 O   0  0  0  0  0  0  0  0  0  0  0  0
   67.5343   40.7484   26.1812 C   0  0  0  0  0  0  0  0  0  0  0  0
   68.2571   39.6374   25.4335 C   0  0  0  0  0  0  0  0  0  0  0  0
   66.8261   38.0957   24.0711 C   0  0  0  0  0  0  0  0  0  0  0  0
   67.7476   37.3650   23.1079 C   0  0  0  0  0  0  0  0  0  0  0  0
   66.8974   32.7363   27.2032 O   0  0  0  0  0  0  0  0  0  0  0  0
   67.4895   31.9809   26.1509 C   0  0  0  0  0  0  0  0  0  0  0  0
 13 14  1  0
 14 10  1  0
 10 15  1  0
 15 16  1  0
 10 11  1  0
 11 12  2  0
 11  1  1  0
  1  2  2  0
  2  3  1  0
  3 17  1  0
 17 18  1  0
  3  4  2  0
  4  5  1  0
  4  6  1  0
  6  7  2  0
  7  8  1  0
  7  1  1  0
  5  9  1  0
M  END
> <minimizedAffinity>
-4.96821

> <CNNscore>
0.6677656174

> <CNNaffinity>
4.7392468452

> <CNN_VS>
3.1647059917

> <CNNaffinity_variance>
0.0510309339

$$$$



 18 18  0  0  0  0  0  0  0  0999 V2000
   66.2742   35.0917   26.1415 C   0  0  0  0  0  0  0  0  0  0  0  0
   65.0855   34.3591   26.2797 C   0  0  0  0  0  0  0  0  0  0  0  0
   65.0928   33.1772   27.0177 C   0  0  0  0  0  0  0  0  0  0  0  0
   66.2965   32.7469   27.5963 C   0  0  0  0  0  0  0  0  0  0  0  0
   66.3300   31.5932   28.3316 O   0  0  0  0  0  0  0  0  0  0  0  0
   67.4818   33.4560   27.4407 C   0  0  0  0  0  0  0  0  0  0  0  0
   67.4655   34.6293   26.6986 C   0  0  0  0  0  0  0  0  0  0  0  0
   68.6113   35.3035   26.5300 F   0  0  0  0  0  0  0  0  0  0  0  0
   65.5472   31.0930   28.4544 H   0  0  0  0  0  0  0  0  0  0  0  0
   66.3940   37.5614   25.9529 N   0  0  0  0  0  0  0  0  0  0  0  0
   66.2513   36.3187   25.3325 C   0  0  0  0  0  0  0  0  0  0  0  0
   66.0596   36.1765   24.1260 O   0  0  0  0  0  0  0  0  0  0  0  0
   65.0684   39.4332   25.0076 C   0  0  0  0  0  0  0  0  0  0  0  0
   66.4221   38.7430   25.0899 C   0  0  0  0  0  0  0  0  0  0  0  0
   66.4204   37.7806   27.4038 C   0  0  0  0  0  0  0  0  0  0  0  0
   67.7653   38.2759   27.9104 C   0  0  0  0  0  0  0  0  0  0  0  0
   64.0160   32.3616   27.2495 O   0  0  0  0  0  0  0  0  0  0  0  0
   63.2420   32.6435   28.4113 C   0  0  0  0  0  0  0  0  0  0  0  0
 13 14  1  0
 14 10  1  0
 10 15  1  0
 15 16  1  0
 10 11  1  0
 11 12  2  0
 11  1  1  0
  1  2  2  0
  2  3  1  0
  3 17  1  0
 17 18  1  0
  3  4  2  0
  4  5  1  0
  4  6  1  0
  6  7  2  0
  7  8  1  0
  7  1  1  0
  5  9  1  0
M  END
> <minimizedAffinity>
-5.23966

> <CNNscore>
0.3863979578

> <CNNaffinity>
4.7827525139

> <CNN_VS>
1.8480458260

> <CNNaffinity_variance>
0.0688676238

$$$$



 18 18  0  0  0  0  0  0  0  0999 V2000
   65.5407   38.1306   24.8656 C   0  0  0  0  0  0  0  0  0  0  0  0
   65.3331   37.0130   25.6880 C   0  0  0  0  0  0  0  0  0  0  0  0
   64.8935   35.8188   25.1202 C   0  0  0  0  0  0  0  0  0  0  0  0
   64.6612   35.7710   23.7372 C   0  0  0  0  0  0  0  0  0  0  0  0
   64.2355   34.6088   23.1532 O   0  0  0  0  0  0  0  0  0  0  0  0
   64.8411   36.8827   22.9227 C   0  0  0  0  0  0  0  0  0  0  0  0
   65.2737   38.0696   23.4987 C   0  0  0  0  0  0  0  0  0  0  0  0
   65.4279   39.1482   22.7186 F   0  0  0  0  0  0  0  0  0  0  0  0
   64.1050   33.8422   23.6759 H   0  0  0  0  0  0  0  0  0  0  0  0
   67.2824   39.5154   25.9605 N   0  0  0  0  0  0  0  0  0  0  0  0
   65.9740   39.3891   25.4895 C   0  0  0  0  0  0  0  0  0  0  0  0
   65.1209   40.2678   25.6014 O   0  0  0  0  0  0  0  0  0  0  0  0
   68.8527   41.4276   25.7815 C   0  0  0  0  0  0  0  0  0  0  0  0
   67.6727   40.8109   26.5184 C   0  0  0  0  0  0  0  0  0  0  0  0
   68.2625   38.4251   26.0277 C   0  0  0  0  0  0  0  0  0  0  0  0
   68.4632   37.8859   27.4347 C   0  0  0  0  0  0  0  0  0  0  0  0
   64.6562   34.6452   25.7871 O   0  0  0  0  0  0  0  0  0  0  0  0
   63.4161   34.5462   26.4806 C   0  0  0  0  0  0  0  0  0  0  0  0
 13 14  1  0
 14 10  1  0
 10 15  1  0
 15 16  1  0
 10 11  1  0
 11 12  2  0
 11  1  1  0
  1  2  2  0
  2  3  1  0
  3 17  1  0
 17 18  1  0
  3  4  2  0
  4  5  1  0
  4  6  1  0
  6  7  2  0
  7  8  1  0
  7  1  1  0
  5  9  1  0
M  END
> <minimizedAffinity>
-5.66836

> <CNNscore>
0.3411795199

> <CNNaffinity>
3.6798496246

> <CNN_VS>
1.2554893494

> <CNNaffinity_variance>
0.7971150279

$$$$



 18 18  0  0  0  0  0  0  0  0999 V2000
   66.4111   36.3660   25.2802 C   0  0  0  0  0  0  0  0  0  0  0  0
   66.8109   36.3385   23.9355 C   0  0  0  0  0  0  0  0  0  0  0  0
   67.4367   37.4554   23.3854 C   0  0  0  0  0  0  0  0  0  0  0  0
   67.6416   38.5841   24.1934 C   0  0  0  0  0  0  0  0  0  0  0  0
   68.2598   39.6919   23.6800 O   0  0  0  0  0  0  0  0  0  0  0  0
   67.2244   38.6251   25.5186 C   0  0  0  0  0  0  0  0  0  0  0  0
   66.5965   37.5095   26.0559 C   0  0  0  0  0  0  0  0  0  0  0  0
   66.1749   37.5544   27.3271 F   0  0  0  0  0  0  0  0  0  0  0  0
   68.5524   39.6948   22.7898 H   0  0  0  0  0  0  0  0  0  0  0  0
   66.3757   34.3794   26.7640 N   0  0  0  0  0  0  0  0  0  0  0  0
   65.7243   35.1892   25.8314 C   0  0  0  0  0  0  0  0  0  0  0  0
   64.5988   34.9563   25.3940 O   0  0  0  0  0  0  0  0  0  0  0  0
   65.9664   31.9353   26.6494 C   0  0  0  0  0  0  0  0  0  0  0  0
   65.6206   33.2563   27.3210 C   0  0  0  0  0  0  0  0  0  0  0  0
   67.7845   34.5096   27.1544 C   0  0  0  0  0  0  0  0  0  0  0  0
   68.6224   33.2956   26.7873 C   0  0  0  0  0  0  0  0  0  0  0  0
   67.8908   37.5760   22.0979 O   0  0  0  0  0  0  0  0  0  0  0  0
   66.9163   37.8805   21.1048 C   0  0  0  0  0  0  0  0  0  0  0  0
 13 14  1  0
 14 10  1  0
 10 15  1  0
 15 16  1  0
 10 11  1  0
 11 12  2  0
 11  1  1  0
  1  2  2  0
  2  3  1  0
  3 17  1  0
 17 18  1  0
  3  4  2  0
  4  5  1  0
  4  6  1  0
  6  7  2  0
  7  8  1  0
  7  1  1  0
  5  9  1  0
M  END
> <minimizedAffinity>
-5.43530

> <CNNscore>
0.3251371086

> <CNNaffinity>
4.7738876343

> <CNN_VS>
1.5521680117

> <CNNaffinity_variance>
0.0557452291

$$$$



 18 18  0  0  0  0  0  0  0  0999 V2000
   70.2762   41.2458   29.1915 C   0  0  0  0  0  0  0  0  0  0  0  0
   69.7309   42.0657   30.1910 C   0  0  0  0  0  0  0  0  0  0  0  0
   68.7227   41.5643   31.0119 C   0  0  0  0  0  0  0  0  0  0  0  0
   68.2734   40.2508   30.8081 C   0  0  0  0  0  0  0  0  0  0  0  0
   67.2890   39.7315   31.6045 O   0  0  0  0  0  0  0  0  0  0  0  0
   68.7928   39.4437   29.8028 C   0  0  0  0  0  0  0  0  0  0  0  0
   69.7929   39.9544   28.9863 C   0  0  0  0  0  0  0  0  0  0  0  0
   70.2805   39.1852   28.0032 F   0  0  0  0  0  0  0  0  0  0  0  0
   66.9188   40.2510   32.2908 H   0  0  0  0  0  0  0  0  0  0  0  0
   70.9510   42.5466   27.1909 N   0  0  0  0  0  0  0  0  0  0  0  0
   71.3163   41.8050   28.3163 C   0  0  0  0  0  0  0  0  0  0  0  0
   72.4809   41.5432   28.6121 O   0  0  0  0  0  0  0  0  0  0  0  0
   72.5009   42.1917   25.2866 C   0  0  0  0  0  0  0  0  0  0  0  0
   72.0300   43.1272   26.3906 C   0  0  0  0  0  0  0  0  0  0  0  0
   69.5785   42.7066   26.6966 C   0  0  0  0  0  0  0  0  0  0  0  0
   69.1432   41.5876   25.7645 C   0  0  0  0  0  0  0  0  0  0  0  0
   68.1015   42.2360   32.0323 O   0  0  0  0  0  0  0  0  0  0  0  0
   68.9060   43.1418   32.7812 C   0  0  0  0  0  0  0  0  0  0  0  0
 13 14  1  0
 14 10  1  0
 10 15  1  0
 15 16  1  0
 10 11  1  0
 11 12  2  0
 11  1  1  0
  1  2  2  0
  2  3  1  0
  3 17  1  0
 17 18  1  0
  3  4  2  0
  4  5  1  0
  4  6  1  0
  6  7  2  0
  7  8  1  0
  7  1  1  0
  5  9  1  0
M  END
> <minimizedAffinity>
-3.87292

> <CNNscore>
0.3182694912

> <CNNaffinity>
3.6812133789

> <CNN_VS>
1.1716178656

> <CNNaffinity_variance>
0.2030011266

$$$$



 18 18  0  0  0  0  0  0  0  0999 V2000
   68.6670   40.6262   31.4892 C   0  0  0  0  0  0  0  0  0  0  0  0
   67.7932   41.4644   32.1981 C   0  0  0  0  0  0  0  0  0  0  0  0
   67.2453   41.0209   33.4001 C   0  0  0  0  0  0  0  0  0  0  0  0
   67.5776   39.7391   33.8643 C   0  0  0  0  0  0  0  0  0  0  0  0
   67.0587   39.2816   35.0452 O   0  0  0  0  0  0  0  0  0  0  0  0
   68.4226   38.8957   33.1527 C   0  0  0  0  0  0  0  0  0  0  0  0
   68.9587   39.3444   31.9532 C   0  0  0  0  0  0  0  0  0  0  0  0
   69.7571   38.5251   31.2553 F   0  0  0  0  0  0  0  0  0  0  0  0
   66.4859   39.8269   35.5477 H   0  0  0  0  0  0  0  0  0  0  0  0
   70.1565   42.1262   30.1928 N   0  0  0  0  0  0  0  0  0  0  0  0
   69.2085   41.1012   30.2080 C   0  0  0  0  0  0  0  0  0  0  0  0
   68.7497   40.5812   29.1923 O   0  0  0  0  0  0  0  0  0  0  0  0
   71.6913   41.4955   28.3485 C   0  0  0  0  0  0  0  0  0  0  0  0
   70.7022   42.5164   28.8921 C   0  0  0  0  0  0  0  0  0  0  0  0
   70.5742   42.9048   31.3646 C   0  0  0  0  0  0  0  0  0  0  0  0
   71.8623   43.6802   31.1405 C   0  0  0  0  0  0  0  0  0  0  0  0
   66.3891   41.7239   34.2070 O   0  0  0  0  0  0  0  0  0  0  0  0
   66.9313   42.8588   34.8753 C   0  0  0  0  0  0  0  0  0  0  0  0
 13 14  1  0
 14 10  1  0
 10 15  1  0
 15 16  1  0
 10 11  1  0
 11 12  2  0
 11  1  1  0
  1  2  2  0
  2  3  1  0
  3 17  1  0
 17 18  1  0
  3  4  2  0
  4  5  1  0
  4  6  1  0
  6  7  2  0
  7  8  1  0
  7  1  1  0
  5  9  1  0
M  END
> <minimizedAffinity>
-4.25848

> <CNNscore>
0.2919096351

> <CNNaffinity>
3.5348713398

> <CNN_VS>
1.0318629742

> <CNNaffinity_variance>
0.2328982800

$$$$
