


 31 34  0  0  0  0  0  0  0  0999 V2000
   -1.1564   -8.7428   40.5751 C   0  0  0  0  0  0  0  0  0  0  0  0
   -0.3075   -9.6926   41.1431 C   0  0  0  0  0  0  0  0  0  0  0  0
    0.4673  -10.5522   40.3559 C   0  0  0  0  0  0  0  0  0  0  0  0
    0.3664  -10.4354   38.9610 C   0  0  0  0  0  0  0  0  0  0  0  0
   -0.4702   -9.4903   38.3670 C   0  0  0  0  0  0  0  0  0  0  0  0
   -1.2432   -8.6347   39.1838 C   0  0  0  0  0  0  0  0  0  0  0  0
   -0.3226   -9.6276   36.9638 C   0  0  0  0  0  0  0  0  0  0  0  0
    0.5940  -10.6334   36.7119 C   0  0  0  0  0  0  0  0  0  0  0  0
    0.9892  -11.1351   37.9374 N   0  0  0  0  0  0  0  0  0  0  0  0
   -2.5902   -6.8867   40.9615 C   0  0  0  0  0  0  0  0  0  0  0  0
   -1.8444   -7.9795   41.4808 O   0  0  0  0  0  0  0  0  0  0  0  0
    1.1036  -11.1005   35.3878 C   0  0  0  0  0  0  0  0  0  0  0  0
    0.6346  -10.1312   34.3984 N   0  0  0  0  0  0  0  0  0  0  0  0
   -0.0133   -9.4959   34.8642 H   0  0  0  0  0  0  0  0  0  0  0  0
    1.8309   -9.2043   33.6656 S   0  0  0  0  0  0  0  0  0  0  0  0
    1.4772   -7.8112   33.8175 O   0  0  0  0  0  0  0  0  0  0  0  0
    3.0997   -9.7250   34.1256 O   0  0  0  0  0  0  0  0  0  0  0  0
    1.7813   -9.5464   31.9112 C   0  0  0  0  0  0  0  0  0  0  0  0
    1.4409  -10.7062   31.2204 C   0  0  0  0  0  0  0  0  0  0  0  0
    1.5269  -10.4271   29.8337 C   0  0  0  0  0  0  0  0  0  0  0  0
    1.3091  -11.1484   28.6469 C   0  0  0  0  0  0  0  0  0  0  0  0
    1.5008  -10.4946   27.4217 C   0  0  0  0  0  0  0  0  0  0  0  0
    1.9055   -9.1559   27.3733 C   0  0  0  0  0  0  0  0  0  0  0  0
    2.1279   -8.4257   28.5451 C   0  0  0  0  0  0  0  0  0  0  0  0
    1.9254   -9.1029   29.7445 C   0  0  0  0  0  0  0  0  0  0  0  0
    2.0844   -8.5692   30.9828 O   0  0  0  0  0  0  0  0  0  0  0  0
    1.8923  -12.2532   38.1642 C   0  0  0  0  0  0  0  0  0  0  0  0
    1.2218  -13.5793   37.9521 C   0  0  0  0  0  0  0  0  0  0  0  0
    0.7691  -13.9943   36.8970 O   0  0  0  0  0  0  0  0  0  0  0  0
    1.1819  -14.3473   39.0599 O   0  0  0  0  0  0  0  0  0  0  0  0
    1.5308  -14.0237   39.8671 H   0  0  0  0  0  0  0  0  0  0  0  0
 10 11  1  0
 11  1  1  0
  1  2  2  0
  2  3  1  0
  3  4  2  0
  4  5  1  0
  5  6  2  0
  5  7  1  0
  7  8  2  0
  8 12  1  0
 12 13  1  0
 13 15  1  0
 15 16  2  0
 15 17  2  0
 15 18  1  0
 18 19  2  0
 19 20  1  0
 20 21  2  0
 21 22  1  0
 22 23  2  0
 23 24  1  0
 24 25  2  0
 25 26  1  0
  8  9  1  0
  9 27  1  0
 27 28  1  0
 28 29  2  0
 28 30  1  0
  6  1  1  0
 26 18  1  0
  9  4  1  0
 25 20  1  0
 13 14  1  0
 30 31  1  0
M  END
> <minimizedAffinity>
-9.83501

> <CNNscore>
0.9386189580

> <CNNaffinity>
6.5307102203

> <CNN_VS>
6.1298484802

> <CNNaffinity_variance>
0.1609635800

$$$$



 31 34  0  0  0  0  0  0  0  0999 V2000
   -1.4406   -8.2364   40.5481 C   0  0  0  0  0  0  0  0  0  0  0  0
   -1.7045   -7.6754   39.2986 C   0  0  0  0  0  0  0  0  0  0  0  0
   -1.1458   -8.1950   38.1252 C   0  0  0  0  0  0  0  0  0  0  0  0
   -0.2995   -9.3089   38.2379 C   0  0  0  0  0  0  0  0  0  0  0  0
   -0.0235   -9.8930   39.4742 C   0  0  0  0  0  0  0  0  0  0  0  0
   -0.5992   -9.3488   40.6445 C   0  0  0  0  0  0  0  0  0  0  0  0
    0.8393  -10.9914   39.2320 C   0  0  0  0  0  0  0  0  0  0  0  0
    1.0756  -11.0764   37.8710 C   0  0  0  0  0  0  0  0  0  0  0  0
    0.3952  -10.0301   37.2775 N   0  0  0  0  0  0  0  0  0  0  0  0
   -3.0203   -6.6131   41.2686 C   0  0  0  0  0  0  0  0  0  0  0  0
   -2.0640   -7.6123   41.5959 O   0  0  0  0  0  0  0  0  0  0  0  0
    1.8832  -12.0996   37.1416 C   0  0  0  0  0  0  0  0  0  0  0  0
    0.9300  -12.9421   36.4206 N   0  0  0  0  0  0  0  0  0  0  0  0
    0.1324  -12.3619   36.1606 H   0  0  0  0  0  0  0  0  0  0  0  0
    1.5166  -13.6713   35.0236 S   0  0  0  0  0  0  0  0  0  0  0  0
    2.7984  -14.2648   35.3298 O   0  0  0  0  0  0  0  0  0  0  0  0
    0.4277  -14.4472   34.4717 O   0  0  0  0  0  0  0  0  0  0  0  0
    1.8345  -12.3775   33.8310 C   0  0  0  0  0  0  0  0  0  0  0  0
    2.8903  -11.4758   33.7276 C   0  0  0  0  0  0  0  0  0  0  0  0
    2.6771  -10.6882   32.5690 C   0  0  0  0  0  0  0  0  0  0  0  0
    3.3597   -9.6419   31.9242 C   0  0  0  0  0  0  0  0  0  0  0  0
    2.8103   -9.1081   30.7500 C   0  0  0  0  0  0  0  0  0  0  0  0
    1.6070   -9.5966   30.2288 C   0  0  0  0  0  0  0  0  0  0  0  0
    0.9155  -10.6356   30.8598 C   0  0  0  0  0  0  0  0  0  0  0  0
    1.4894  -11.1457   32.0211 C   0  0  0  0  0  0  0  0  0  0  0  0
    0.9758  -12.1535   32.7722 O   0  0  0  0  0  0  0  0  0  0  0  0
    0.4085   -9.6798   35.8653 C   0  0  0  0  0  0  0  0  0  0  0  0
    1.2646   -8.4792   35.5842 C   0  0  0  0  0  0  0  0  0  0  0  0
    0.8694   -7.3327   35.4435 O   0  0  0  0  0  0  0  0  0  0  0  0
    2.5832   -8.7570   35.5311 O   0  0  0  0  0  0  0  0  0  0  0  0
    2.8809   -9.6388   35.6398 H   0  0  0  0  0  0  0  0  0  0  0  0
 10 11  1  0
 11  1  1  0
  1  2  2  0
  2  3  1  0
  3  4  2  0
  4  5  1  0
  5  6  2  0
  5  7  1  0
  7  8  2  0
  8 12  1  0
 12 13  1  0
 13 15  1  0
 15 16  2  0
 15 17  2  0
 15 18  1  0
 18 19  2  0
 19 20  1  0
 20 21  2  0
 21 22  1  0
 22 23  2  0
 23 24  1  0
 24 25  2  0
 25 26  1  0
  8  9  1  0
  9 27  1  0
 27 28  1  0
 28 29  2  0
 28 30  1  0
  6  1  1  0
 26 18  1  0
  9  4  1  0
 25 20  1  0
 13 14  1  0
 30 31  1  0
M  END
> <minimizedAffinity>
-7.79091

> <CNNscore>
0.8838029504

> <CNNaffinity>
6.3374438286

> <CNN_VS>
5.6010513306

> <CNNaffinity_variance>
0.0414775163

$$$$



 31 34  0  0  0  0  0  0  0  0999 V2000
   -0.3333   -9.4095   40.1913 C   0  0  0  0  0  0  0  0  0  0  0  0
    0.1329  -10.5863   40.7774 C   0  0  0  0  0  0  0  0  0  0  0  0
    0.8590  -11.5347   40.0479 C   0  0  0  0  0  0  0  0  0  0  0  0
    1.1084  -11.2706   38.6923 C   0  0  0  0  0  0  0  0  0  0  0  0
    0.6590  -10.0990   38.0829 C   0  0  0  0  0  0  0  0  0  0  0  0
   -0.0731   -9.1575   38.8409 C   0  0  0  0  0  0  0  0  0  0  0  0
    1.0901  -10.1404   36.7331 C   0  0  0  0  0  0  0  0  0  0  0  0
    1.7960  -11.3134   36.5301 C   0  0  0  0  0  0  0  0  0  0  0  0
    1.7797  -12.0059   37.7259 N   0  0  0  0  0  0  0  0  0  0  0  0
   -0.6182   -7.2251   41.0841 C   0  0  0  0  0  0  0  0  0  0  0  0
   -1.0253   -8.5861   41.0394 O   0  0  0  0  0  0  0  0  0  0  0  0
    2.4798  -11.7692   35.2828 C   0  0  0  0  0  0  0  0  0  0  0  0
    2.1474  -10.7913   34.2476 N   0  0  0  0  0  0  0  0  0  0  0  0
    2.9543  -10.7016   33.6301 H   0  0  0  0  0  0  0  0  0  0  0  0
    0.8094  -11.1632   33.2997 S   0  0  0  0  0  0  0  0  0  0  0  0
    0.7210  -12.6016   33.1902 O   0  0  0  0  0  0  0  0  0  0  0  0
   -0.2889  -10.3663   33.8010 O   0  0  0  0  0  0  0  0  0  0  0  0
    1.1292  -10.5528   31.6497 C   0  0  0  0  0  0  0  0  0  0  0  0
    1.5092   -9.2892   31.2056 C   0  0  0  0  0  0  0  0  0  0  0  0
    1.6718   -9.3537   29.7993 C   0  0  0  0  0  0  0  0  0  0  0  0
    2.0400   -8.4506   28.7867 C   0  0  0  0  0  0  0  0  0  0  0  0
    2.0943   -8.9136   27.4645 C   0  0  0  0  0  0  0  0  0  0  0  0
    1.7845  -10.2419   27.1514 C   0  0  0  0  0  0  0  0  0  0  0  0
    1.4148  -11.1515   28.1473 C   0  0  0  0  0  0  0  0  0  0  0  0
    1.3741  -10.6610   29.4496 C   0  0  0  0  0  0  0  0  0  0  0  0
    1.0440  -11.3847   30.5500 O   0  0  0  0  0  0  0  0  0  0  0  0
    2.3384  -13.3274   37.9682 C   0  0  0  0  0  0  0  0  0  0  0  0
    3.6866  -13.2642   38.6253 C   0  0  0  0  0  0  0  0  0  0  0  0
    4.2762  -14.1982   39.1453 O   0  0  0  0  0  0  0  0  0  0  0  0
    4.2581  -12.0441   38.5684 O   0  0  0  0  0  0  0  0  0  0  0  0
    3.8010  -11.3308   38.1680 H   0  0  0  0  0  0  0  0  0  0  0  0
 10 11  1  0
 11  1  1  0
  1  2  2  0
  2  3  1  0
  3  4  2  0
  4  5  1  0
  5  6  2  0
  5  7  1  0
  7  8  2  0
  8 12  1  0
 12 13  1  0
 13 15  1  0
 15 16  2  0
 15 17  2  0
 15 18  1  0
 18 19  2  0
 19 20  1  0
 20 21  2  0
 21 22  1  0
 22 23  2  0
 23 24  1  0
 24 25  2  0
 25 26  1  0
  8  9  1  0
  9 27  1  0
 27 28  1  0
 28 29  2  0
 28 30  1  0
  6  1  1  0
 26 18  1  0
  9  4  1  0
 25 20  1  0
 13 14  1  0
 30 31  1  0
M  END
> <minimizedAffinity>
-9.30748

> <CNNscore>
0.8092279434

> <CNNaffinity>
5.8162822723

> <CNN_VS>
4.7066979408

> <CNNaffinity_variance>
0.2468650192

$$$$



 31 34  0  0  0  0  0  0  0  0999 V2000
   -0.9008   -8.9370   40.4684 C   0  0  0  0  0  0  0  0  0  0  0  0
   -1.0485   -8.3012   39.2357 C   0  0  0  0  0  0  0  0  0  0  0  0
   -0.4230   -8.7819   38.0796 C   0  0  0  0  0  0  0  0  0  0  0  0
    0.3699   -9.9344   38.1925 C   0  0  0  0  0  0  0  0  0  0  0  0
    0.5297  -10.5930   39.4117 C   0  0  0  0  0  0  0  0  0  0  0  0
   -0.1116  -10.0870   40.5648 C   0  0  0  0  0  0  0  0  0  0  0  0
    1.3663  -11.7124   39.1733 C   0  0  0  0  0  0  0  0  0  0  0  0
    1.7011  -11.7362   37.8307 C   0  0  0  0  0  0  0  0  0  0  0  0
    1.1073  -10.6330   37.2473 N   0  0  0  0  0  0  0  0  0  0  0  0
   -2.2670   -7.1360   41.2033 C   0  0  0  0  0  0  0  0  0  0  0  0
   -1.5774   -8.3428   41.5005 O   0  0  0  0  0  0  0  0  0  0  0  0
    2.5223  -12.7528   37.1072 C   0  0  0  0  0  0  0  0  0  0  0  0
    3.6442  -13.0802   37.9861 N   0  0  0  0  0  0  0  0  0  0  0  0
    3.4893  -12.6135   38.8797 H   0  0  0  0  0  0  0  0  0  0  0  0
    3.8747  -14.7177   38.2908 S   0  0  0  0  0  0  0  0  0  0  0  0
    5.0947  -14.8666   39.0513 O   0  0  0  0  0  0  0  0  0  0  0  0
    2.6099  -15.2334   38.7669 O   0  0  0  0  0  0  0  0  0  0  0  0
    4.1600  -15.5248   36.7209 C   0  0  0  0  0  0  0  0  0  0  0  0
    5.3367  -15.7341   36.0069 C   0  0  0  0  0  0  0  0  0  0  0  0
    5.0113  -16.4671   34.8385 C   0  0  0  0  0  0  0  0  0  0  0  0
    5.7261  -16.9855   33.7446 C   0  0  0  0  0  0  0  0  0  0  0  0
    5.0208  -17.6855   32.7556 C   0  0  0  0  0  0  0  0  0  0  0  0
    3.6356  -17.8631   32.8455 C   0  0  0  0  0  0  0  0  0  0  0  0
    2.9106  -17.3517   33.9266 C   0  0  0  0  0  0  0  0  0  0  0  0
    3.6409  -16.6651   34.8927 C   0  0  0  0  0  0  0  0  0  0  0  0
    3.1224  -16.1008   36.0135 O   0  0  0  0  0  0  0  0  0  0  0  0
    1.2402  -10.2105   35.8614 C   0  0  0  0  0  0  0  0  0  0  0  0
    1.5430  -11.3581   34.9424 C   0  0  0  0  0  0  0  0  0  0  0  0
    2.6453  -11.6663   34.5178 O   0  0  0  0  0  0  0  0  0  0  0  0
    0.4597  -12.0963   34.6257 O   0  0  0  0  0  0  0  0  0  0  0  0
   -0.3839  -11.8551   34.9543 H   0  0  0  0  0  0  0  0  0  0  0  0
 10 11  1  0
 11  1  1  0
  1  2  2  0
  2  3  1  0
  3  4  2  0
  4  5  1  0
  5  6  2  0
  5  7  1  0
  7  8  2  0
  8 12  1  0
 12 13  1  0
 13 15  1  0
 15 16  2  0
 15 17  2  0
 15 18  1  0
 18 19  2  0
 19 20  1  0
 20 21  2  0
 21 22  1  0
 22 23  2  0
 23 24  1  0
 24 25  2  0
 25 26  1  0
  8  9  1  0
  9 27  1  0
 27 28  1  0
 28 29  2  0
 28 30  1  0
  6  1  1  0
 26 18  1  0
  9  4  1  0
 25 20  1  0
 13 14  1  0
 30 31  1  0
M  END
> <minimizedAffinity>
-8.22432

> <CNNscore>
0.7150877714

> <CNNaffinity>
5.4155979156

> <CNN_VS>
3.8726277351

> <CNNaffinity_variance>
0.0824340060

$$$$



 31 34  0  0  0  0  0  0  0  0999 V2000
   -0.6831   -9.1106   40.1895 C   0  0  0  0  0  0  0  0  0  0  0  0
   -1.4123   -8.4605   39.1939 C   0  0  0  0  0  0  0  0  0  0  0  0
   -1.2191   -8.7424   37.8367 C   0  0  0  0  0  0  0  0  0  0  0  0
   -0.2586   -9.7074   37.4964 C   0  0  0  0  0  0  0  0  0  0  0  0
    0.4801  -10.3767   38.4721 C   0  0  0  0  0  0  0  0  0  0  0  0
    0.2673  -10.0732   39.8358 C   0  0  0  0  0  0  0  0  0  0  0  0
    1.3361  -11.2830   37.7971 C   0  0  0  0  0  0  0  0  0  0  0  0
    1.1139  -11.1706   36.4358 C   0  0  0  0  0  0  0  0  0  0  0  0
    0.1564  -10.1891   36.2631 N   0  0  0  0  0  0  0  0  0  0  0  0
   -0.6078   -9.6041   42.5134 C   0  0  0  0  0  0  0  0  0  0  0  0
   -0.9909   -8.7224   41.4665 O   0  0  0  0  0  0  0  0  0  0  0  0
    1.7471  -11.9561   35.3343 C   0  0  0  0  0  0  0  0  0  0  0  0
    1.5551  -11.1805   34.1096 N   0  0  0  0  0  0  0  0  0  0  0  0
    0.8803  -10.4419   34.3084 H   0  0  0  0  0  0  0  0  0  0  0  0
    2.9388  -10.4615   33.4805 S   0  0  0  0  0  0  0  0  0  0  0  0
    3.1257   -9.1900   34.1418 O   0  0  0  0  0  0  0  0  0  0  0  0
    3.9682  -11.4777   33.4737 O   0  0  0  0  0  0  0  0  0  0  0  0
    2.6212  -10.0908   31.7603 C   0  0  0  0  0  0  0  0  0  0  0  0
    2.6842   -8.8874   31.0631 C   0  0  0  0  0  0  0  0  0  0  0  0
    2.3779   -9.1553   29.7056 C   0  0  0  0  0  0  0  0  0  0  0  0
    2.2831   -8.3952   28.5268 C   0  0  0  0  0  0  0  0  0  0  0  0
    1.9493   -9.0504   27.3331 C   0  0  0  0  0  0  0  0  0  0  0  0
    1.7088  -10.4288   27.3090 C   0  0  0  0  0  0  0  0  0  0  0  0
    1.7975  -11.1980   28.4736 C   0  0  0  0  0  0  0  0  0  0  0  0
    2.1342  -10.5179   29.6407 C   0  0  0  0  0  0  0  0  0  0  0  0
    2.2731  -11.0851   30.8665 O   0  0  0  0  0  0  0  0  0  0  0  0
   -0.3427   -9.6809   34.9944 C   0  0  0  0  0  0  0  0  0  0  0  0
    0.0407   -8.2480   34.7640 C   0  0  0  0  0  0  0  0  0  0  0  0
    0.8005   -7.5882   35.4553 O   0  0  0  0  0  0  0  0  0  0  0  0
   -0.5108   -7.7131   33.6558 O   0  0  0  0  0  0  0  0  0  0  0  0
   -1.0933   -8.2241   33.1289 H   0  0  0  0  0  0  0  0  0  0  0  0
 10 11  1  0
 11  1  1  0
  1  2  2  0
  2  3  1  0
  3  4  2  0
  4  5  1  0
  5  6  2  0
  5  7  1  0
  7  8  2  0
  8 12  1  0
 12 13  1  0
 13 15  1  0
 15 16  2  0
 15 17  2  0
 15 18  1  0
 18 19  2  0
 19 20  1  0
 20 21  2  0
 21 22  1  0
 22 23  2  0
 23 24  1  0
 24 25  2  0
 25 26  1  0
  8  9  1  0
  9 27  1  0
 27 28  1  0
 28 29  2  0
 28 30  1  0
  6  1  1  0
 26 18  1  0
  9  4  1  0
 25 20  1  0
 13 14  1  0
 30 31  1  0
M  END
> <minimizedAffinity>
-9.63274

> <CNNscore>
0.6105279326

> <CNNaffinity>
6.1962814331

> <CNN_VS>
3.7830028534

> <CNNaffinity_variance>
0.0538823344

$$$$



 31 34  0  0  0  0  0  0  0  0999 V2000
   -1.2796   -8.4989   40.4760 C   0  0  0  0  0  0  0  0  0  0  0  0
   -1.5809   -7.9496   39.2297 C   0  0  0  0  0  0  0  0  0  0  0  0
   -1.0388   -8.4657   38.0471 C   0  0  0  0  0  0  0  0  0  0  0  0
   -0.1703   -9.5636   38.1467 C   0  0  0  0  0  0  0  0  0  0  0  0
    0.1431  -10.1358   39.3797 C   0  0  0  0  0  0  0  0  0  0  0  0
   -0.4164   -9.5956   40.5595 C   0  0  0  0  0  0  0  0  0  0  0  0
    1.0199  -11.2200   39.1242 C   0  0  0  0  0  0  0  0  0  0  0  0
    1.2279  -11.3083   37.7589 C   0  0  0  0  0  0  0  0  0  0  0  0
    0.5160  -10.2777   37.1750 N   0  0  0  0  0  0  0  0  0  0  0  0
   -2.7242   -6.7691   41.2316 C   0  0  0  0  0  0  0  0  0  0  0  0
   -1.8909   -7.8801   41.5341 O   0  0  0  0  0  0  0  0  0  0  0  0
    2.0375  -12.3210   37.0171 C   0  0  0  0  0  0  0  0  0  0  0  0
    1.9435  -13.5652   37.7797 N   0  0  0  0  0  0  0  0  0  0  0  0
    1.5214  -14.2716   37.1769 H   0  0  0  0  0  0  0  0  0  0  0  0
    3.4007  -14.1779   38.3529 S   0  0  0  0  0  0  0  0  0  0  0  0
    3.9491  -13.2282   39.2942 O   0  0  0  0  0  0  0  0  0  0  0  0
    3.1577  -15.5576   38.7134 O   0  0  0  0  0  0  0  0  0  0  0  0
    4.5411  -14.2368   36.9769 C   0  0  0  0  0  0  0  0  0  0  0  0
    5.4432  -13.2882   36.5026 C   0  0  0  0  0  0  0  0  0  0  0  0
    6.1384  -13.8592   35.4077 C   0  0  0  0  0  0  0  0  0  0  0  0
    7.1506  -13.4370   34.5282 C   0  0  0  0  0  0  0  0  0  0  0  0
    7.5941  -14.3283   33.5412 C   0  0  0  0  0  0  0  0  0  0  0  0
    7.0423  -15.6090   33.4242 C   0  0  0  0  0  0  0  0  0  0  0  0
    6.0336  -16.0428   34.2904 C   0  0  0  0  0  0  0  0  0  0  0  0
    5.6184  -15.1353   35.2610 C   0  0  0  0  0  0  0  0  0  0  0  0
    4.6588  -15.3682   36.1930 O   0  0  0  0  0  0  0  0  0  0  0  0
    0.4920   -9.9350   35.7611 C   0  0  0  0  0  0  0  0  0  0  0  0
    1.4042   -8.7876   35.4375 C   0  0  0  0  0  0  0  0  0  0  0  0
    1.1232   -7.6023   35.5183 O   0  0  0  0  0  0  0  0  0  0  0  0
    2.6423   -9.1708   35.0652 O   0  0  0  0  0  0  0  0  0  0  0  0
    2.8524  -10.0820   35.0048 H   0  0  0  0  0  0  0  0  0  0  0  0
 10 11  1  0
 11  1  1  0
  1  2  2  0
  2  3  1  0
  3  4  2  0
  4  5  1  0
  5  6  2  0
  5  7  1  0
  7  8  2  0
  8 12  1  0
 12 13  1  0
 13 15  1  0
 15 16  2  0
 15 17  2  0
 15 18  1  0
 18 19  2  0
 19 20  1  0
 20 21  2  0
 21 22  1  0
 22 23  2  0
 23 24  1  0
 24 25  2  0
 25 26  1  0
  8  9  1  0
  9 27  1  0
 27 28  1  0
 28 29  2  0
 28 30  1  0
  6  1  1  0
 26 18  1  0
  9  4  1  0
 25 20  1  0
 13 14  1  0
 30 31  1  0
M  END
> <minimizedAffinity>
-8.64690

> <CNNscore>
0.6092430949

> <CNNaffinity>
5.5021195412

> <CNN_VS>
3.3521282673

> <CNNaffinity_variance>
0.1797902137

$$$$



 31 34  0  0  0  0  0  0  0  0999 V2000
   -1.2754   -8.5832   40.3764 C   0  0  0  0  0  0  0  0  0  0  0  0
   -1.5483   -7.9871   39.1453 C   0  0  0  0  0  0  0  0  0  0  0  0
   -0.9868   -8.4645   37.9554 C   0  0  0  0  0  0  0  0  0  0  0  0
   -0.1284   -9.5721   38.0321 C   0  0  0  0  0  0  0  0  0  0  0  0
    0.1568  -10.1908   39.2494 C   0  0  0  0  0  0  0  0  0  0  0  0
   -0.4219   -9.6889   40.4370 C   0  0  0  0  0  0  0  0  0  0  0  0
    1.0307  -11.2719   38.9719 C   0  0  0  0  0  0  0  0  0  0  0  0
    1.2647  -11.3126   37.6085 C   0  0  0  0  0  0  0  0  0  0  0  0
    0.5717  -10.2561   37.0486 N   0  0  0  0  0  0  0  0  0  0  0  0
   -2.6796   -6.8390   41.1738 C   0  0  0  0  0  0  0  0  0  0  0  0
   -1.9029   -7.9982   41.4442 O   0  0  0  0  0  0  0  0  0  0  0  0
    2.0814  -12.3042   36.8464 C   0  0  0  0  0  0  0  0  0  0  0  0
    3.2252  -12.6374   37.6944 N   0  0  0  0  0  0  0  0  0  0  0  0
    3.1672  -12.0667   38.5379 H   0  0  0  0  0  0  0  0  0  0  0  0
    3.3354  -14.2476   38.1660 S   0  0  0  0  0  0  0  0  0  0  0  0
    4.4989  -14.3903   39.0116 O   0  0  0  0  0  0  0  0  0  0  0  0
    2.0160  -14.6418   38.6089 O   0  0  0  0  0  0  0  0  0  0  0  0
    3.6581  -15.2194   36.7001 C   0  0  0  0  0  0  0  0  0  0  0  0
    4.8580  -15.5645   36.0841 C   0  0  0  0  0  0  0  0  0  0  0  0
    4.5541  -16.3884   34.9718 C   0  0  0  0  0  0  0  0  0  0  0  0
    5.2958  -17.0514   33.9785 C   0  0  0  0  0  0  0  0  0  0  0  0
    4.6053  -17.8033   33.0177 C   0  0  0  0  0  0  0  0  0  0  0  0
    3.2088  -17.8916   33.0370 C   0  0  0  0  0  0  0  0  0  0  0  0
    2.4571  -17.2363   34.0175 C   0  0  0  0  0  0  0  0  0  0  0  0
    3.1731  -16.5014   34.9584 C   0  0  0  0  0  0  0  0  0  0  0  0
    2.6283  -15.8015   35.9864 O   0  0  0  0  0  0  0  0  0  0  0  0
    0.5779   -9.8625   35.6479 C   0  0  0  0  0  0  0  0  0  0  0  0
    1.5379   -8.7412   35.3753 C   0  0  0  0  0  0  0  0  0  0  0  0
    1.3085   -7.5501   35.5138 O   0  0  0  0  0  0  0  0  0  0  0  0
    2.7576   -9.1589   34.9799 O   0  0  0  0  0  0  0  0  0  0  0  0
    2.9281  -10.0743   34.8753 H   0  0  0  0  0  0  0  0  0  0  0  0
 10 11  1  0
 11  1  1  0
  1  2  2  0
  2  3  1  0
  3  4  2  0
  4  5  1  0
  5  6  2  0
  5  7  1  0
  7  8  2  0
  8 12  1  0
 12 13  1  0
 13 15  1  0
 15 16  2  0
 15 17  2  0
 15 18  1  0
 18 19  2  0
 19 20  1  0
 20 21  2  0
 21 22  1  0
 22 23  2  0
 23 24  1  0
 24 25  2  0
 25 26  1  0
  8  9  1  0
  9 27  1  0
 27 28  1  0
 28 29  2  0
 28 30  1  0
  6  1  1  0
 26 18  1  0
  9  4  1  0
 25 20  1  0
 13 14  1  0
 30 31  1  0
M  END
> <minimizedAffinity>
-8.74315

> <CNNscore>
0.5592169166

> <CNNaffinity>
5.4559121132

> <CNN_VS>
3.0510382652

> <CNNaffinity_variance>
0.3721018732

$$$$



 31 34  0  0  0  0  0  0  0  0999 V2000
   -0.8622   -9.0621   40.1742 C   0  0  0  0  0  0  0  0  0  0  0  0
   -1.2110   -8.2867   39.0685 C   0  0  0  0  0  0  0  0  0  0  0  0
   -0.7798   -8.6100   37.7768 C   0  0  0  0  0  0  0  0  0  0  0  0
    0.0255   -9.7485   37.6188 C   0  0  0  0  0  0  0  0  0  0  0  0
    0.3841  -10.5447   38.7065 C   0  0  0  0  0  0  0  0  0  0  0  0
   -0.0632  -10.1963   40.0009 C   0  0  0  0  0  0  0  0  0  0  0  0
    1.1753  -11.6071   38.2015 C   0  0  0  0  0  0  0  0  0  0  0  0
    1.2875  -11.4615   36.8298 C   0  0  0  0  0  0  0  0  0  0  0  0
    0.6023  -10.3108   36.4890 N   0  0  0  0  0  0  0  0  0  0  0  0
   -2.0477   -7.3663   41.3442 C   0  0  0  0  0  0  0  0  0  0  0  0
   -1.3644   -8.6124   41.3665 O   0  0  0  0  0  0  0  0  0  0  0  0
    1.9842  -12.3641   35.8648 C   0  0  0  0  0  0  0  0  0  0  0  0
    1.1440  -13.5533   35.7299 N   0  0  0  0  0  0  0  0  0  0  0  0
    1.0321  -13.7472   34.7348 H   0  0  0  0  0  0  0  0  0  0  0  0
    1.7329  -14.9461   36.4653 S   0  0  0  0  0  0  0  0  0  0  0  0
    3.1237  -14.7286   36.7927 O   0  0  0  0  0  0  0  0  0  0  0  0
    0.7627  -15.3281   37.4679 O   0  0  0  0  0  0  0  0  0  0  0  0
    1.7027  -16.2548   35.2472 C   0  0  0  0  0  0  0  0  0  0  0  0
    0.6906  -17.1418   34.8908 C   0  0  0  0  0  0  0  0  0  0  0  0
    1.1752  -17.9520   33.8339 C   0  0  0  0  0  0  0  0  0  0  0  0
    0.6583  -18.9984   33.0502 C   0  0  0  0  0  0  0  0  0  0  0  0
    1.4768  -19.5603   32.0603 C   0  0  0  0  0  0  0  0  0  0  0  0
    2.7820  -19.0990   31.8551 C   0  0  0  0  0  0  0  0  0  0  0  0
    3.3108  -18.0602   32.6278 C   0  0  0  0  0  0  0  0  0  0  0  0
    2.4714  -17.5219   33.5993 C   0  0  0  0  0  0  0  0  0  0  0  0
    2.7971  -16.5096   34.4434 O   0  0  0  0  0  0  0  0  0  0  0  0
    0.5063   -9.7219   35.1620 C   0  0  0  0  0  0  0  0  0  0  0  0
    1.4381   -8.5582   34.9863 C   0  0  0  0  0  0  0  0  0  0  0  0
    1.1245   -7.3785   35.0040 O   0  0  0  0  0  0  0  0  0  0  0  0
    2.7290   -8.9182   34.8364 O   0  0  0  0  0  0  0  0  0  0  0  0
    2.9640   -9.8252   34.8235 H   0  0  0  0  0  0  0  0  0  0  0  0
 10 11  1  0
 11  1  1  0
  1  2  2  0
  2  3  1  0
  3  4  2  0
  4  5  1  0
  5  6  2  0
  5  7  1  0
  7  8  2  0
  8 12  1  0
 12 13  1  0
 13 15  1  0
 15 16  2  0
 15 17  2  0
 15 18  1  0
 18 19  2  0
 19 20  1  0
 20 21  2  0
 21 22  1  0
 22 23  2  0
 23 24  1  0
 24 25  2  0
 25 26  1  0
  8  9  1  0
  9 27  1  0
 27 28  1  0
 28 29  2  0
 28 30  1  0
  6  1  1  0
 26 18  1  0
  9  4  1  0
 25 20  1  0
 13 14  1  0
 30 31  1  0
M  END
> <minimizedAffinity>
-8.51719

> <CNNscore>
0.5065558553

> <CNNaffinity>
5.4567694664

> <CNN_VS>
2.7641584873

> <CNNaffinity_variance>
0.0823176801

$$$$



 31 34  0  0  0  0  0  0  0  0999 V2000
   -0.6385   -8.6412   40.6411 C   0  0  0  0  0  0  0  0  0  0  0  0
   -0.3079   -9.7816   41.3731 C   0  0  0  0  0  0  0  0  0  0  0  0
    0.3161  -10.8837   40.7774 C   0  0  0  0  0  0  0  0  0  0  0  0
    0.6034  -10.8139   39.4055 C   0  0  0  0  0  0  0  0  0  0  0  0
    0.2890   -9.6833   38.6513 C   0  0  0  0  0  0  0  0  0  0  0  0
   -0.3420   -8.5839   39.2759 C   0  0  0  0  0  0  0  0  0  0  0  0
    0.7236   -9.9337   37.3253 C   0  0  0  0  0  0  0  0  0  0  0  0
    1.2989  -11.1915   37.2787 C   0  0  0  0  0  0  0  0  0  0  0  0
    1.1980  -11.7285   38.5481 N   0  0  0  0  0  0  0  0  0  0  0  0
   -2.2980   -6.9420   40.7346 C   0  0  0  0  0  0  0  0  0  0  0  0
   -1.2433   -7.6518   41.3701 O   0  0  0  0  0  0  0  0  0  0  0  0
    1.9387  -11.8656   36.1093 C   0  0  0  0  0  0  0  0  0  0  0  0
    3.3823  -11.8002   36.3327 N   0  0  0  0  0  0  0  0  0  0  0  0
    3.5549  -11.9744   37.3228 H   0  0  0  0  0  0  0  0  0  0  0  0
    4.3048  -12.8920   35.4470 S   0  0  0  0  0  0  0  0  0  0  0  0
    3.7749  -14.2173   35.6743 O   0  0  0  0  0  0  0  0  0  0  0  0
    4.4373  -12.3400   34.1165 O   0  0  0  0  0  0  0  0  0  0  0  0
    5.9558  -12.8869   36.1336 C   0  0  0  0  0  0  0  0  0  0  0  0
    6.4911  -13.5751   37.2190 C   0  0  0  0  0  0  0  0  0  0  0  0
    7.8661  -13.2439   37.3082 C   0  0  0  0  0  0  0  0  0  0  0  0
    8.9337  -13.5987   38.1512 C   0  0  0  0  0  0  0  0  0  0  0  0
   10.1963  -13.0426   37.9021 C   0  0  0  0  0  0  0  0  0  0  0  0
   10.3957  -12.1493   36.8435 C   0  0  0  0  0  0  0  0  0  0  0  0
    9.3433  -11.7854   35.9975 C   0  0  0  0  0  0  0  0  0  0  0  0
    8.1037  -12.3577   36.2698 C   0  0  0  0  0  0  0  0  0  0  0  0
    6.9652  -12.1347   35.5644 O   0  0  0  0  0  0  0  0  0  0  0  0
    1.6075  -13.0631   38.9581 C   0  0  0  0  0  0  0  0  0  0  0  0
    3.0994  -13.1958   39.0579 C   0  0  0  0  0  0  0  0  0  0  0  0
    3.8868  -12.2914   39.2873 O   0  0  0  0  0  0  0  0  0  0  0  0
    3.5401  -14.4613   38.9067 O   0  0  0  0  0  0  0  0  0  0  0  0
    2.9313  -15.1515   38.7307 H   0  0  0  0  0  0  0  0  0  0  0  0
 10 11  1  0
 11  1  1  0
  1  2  2  0
  2  3  1  0
  3  4  2  0
  4  5  1  0
  5  6  2  0
  5  7  1  0
  7  8  2  0
  8 12  1  0
 12 13  1  0
 13 15  1  0
 15 16  2  0
 15 17  2  0
 15 18  1  0
 18 19  2  0
 19 20  1  0
 20 21  2  0
 21 22  1  0
 22 23  2  0
 23 24  1  0
 24 25  2  0
 25 26  1  0
  8  9  1  0
  9 27  1  0
 27 28  1  0
 28 29  2  0
 28 30  1  0
  6  1  1  0
 26 18  1  0
  9  4  1  0
 25 20  1  0
 13 14  1  0
 30 31  1  0
M  END
> <minimizedAffinity>
-7.53490

> <CNNscore>
0.4565295279

> <CNNaffinity>
5.1904702187

> <CNN_VS>
2.3696029186

> <CNNaffinity_variance>
0.1574786454

$$$$
