


 39 42  0  0  0  0  0  0  0  0999 V2000
   19.2033   18.7415   33.6016 C   0  0  0  0  0  0  0  0  0  0  0  0
   18.6694   17.6126   32.9889 C   0  0  0  0  0  0  0  0  0  0  0  0
   19.5059   16.5459   32.6680 C   0  0  0  0  0  0  0  0  0  0  0  0
   20.8836   16.5986   32.9399 C   0  0  0  0  0  0  0  0  0  0  0  0
   21.6890   15.4999   32.6207 C   0  0  0  0  0  0  0  0  0  0  0  0
   23.0569   15.5240   32.8929 C   0  0  0  0  0  0  0  0  0  0  0  0
   23.6298   16.6442   33.4990 C   0  0  0  0  0  0  0  0  0  0  0  0
   22.8660   17.7822   33.8016 C   0  0  0  0  0  0  0  0  0  0  0  0
   21.4571   17.7516   33.5444 C   0  0  0  0  0  0  0  0  0  0  0  0
   20.5758   18.8118   33.8733 C   0  0  0  0  0  0  0  0  0  0  0  0
   17.0198   19.7649   33.9810 N   0  0  0  0  0  0  0  0  0  0  0  0
   18.3090   19.8751   33.9521 C   0  0  0  0  0  0  0  0  0  0  0  0
   18.8365   21.0906   34.2683 N   0  0  0  0  0  0  0  0  0  0  0  0
   16.4644   20.5423   34.2187 H   0  0  0  0  0  0  0  0  0  0  0  0
   18.2417   21.8401   34.5001 H   0  0  0  0  0  0  0  0  0  0  0  0
   19.8125   21.2196   34.2650 H   0  0  0  0  0  0  0  0  0  0  0  0
   23.9283   14.3619   32.5660 C   0  0  0  0  0  0  0  0  0  0  0  0
   23.9126   13.3931   33.3137 O   0  0  0  0  0  0  0  0  0  0  0  0
   24.7064   14.5315   31.4343 N   0  0  0  0  0  0  0  0  0  0  0  0
   24.6316   15.4011   30.9789 H   0  0  0  0  0  0  0  0  0  0  0  0
   25.5948   13.5982   30.8600 C   0  0  0  0  0  0  0  0  0  0  0  0
   25.8366   12.3276   31.3817 C   0  0  0  0  0  0  0  0  0  0  0  0
   26.7308   11.4567   30.7478 C   0  0  0  0  0  0  0  0  0  0  0  0
   27.4030   11.8436   29.5823 C   0  0  0  0  0  0  0  0  0  0  0  0
   27.1500   13.1136   29.0521 C   0  0  0  0  0  0  0  0  0  0  0  0
   26.2564   13.9823   29.6871 C   0  0  0  0  0  0  0  0  0  0  0  0
   28.3448   10.8940   28.8894 C   0  0  0  0  0  0  0  0  0  0  0  0
   27.9790    9.5061   29.1454 N   0  0  0  0  0  0  0  0  0  0  0  0
   28.0280    9.3209   30.1473 H   0  0  0  0  0  0  0  0  0  0  0  0
   28.6242    8.8881   28.6534 H   0  0  0  0  0  0  0  0  0  0  0  0
   23.4453   18.9108   34.4153 N   0  0  0  0  0  0  0  0  0  0  0  0
   23.3999   19.7215   33.8585 H   0  0  0  0  0  0  0  0  0  0  0  0
   24.0683   19.1222   35.6422 C   0  0  0  0  0  0  0  0  0  0  0  0
   23.9183   18.1232   36.5335 N   0  0  0  0  0  0  0  0  0  0  0  0
   24.5268   18.2697   37.7326 C   0  0  0  0  0  0  0  0  0  0  0  0
   25.2753   19.3664   38.0682 C   0  0  0  0  0  0  0  0  0  0  0  0
   25.8661   19.4860   39.2609 F   0  0  0  0  0  0  0  0  0  0  0  0
   25.3783   20.3305   37.1023 C   0  0  0  0  0  0  0  0  0  0  0  0
   24.7885   20.2283   35.8912 N   0  0  0  0  0  0  0  0  0  0  0  0
 11 12  2  0
 12 13  1  0
 12  1  1  0
  1  2  2  0
  2  3  1  0
  3  4  2  0
  4  5  1  0
  5  6  2  0
  6 17  1  0
 17 18  2  0
 17 19  1  0
 19 21  1  0
 21 22  2  0
 22 23  1  0
 23 24  2  0
 24 27  1  0
 27 28  1  0
 24 25  1  0
 25 26  2  0
  6  7  1  0
  7  8  2  0
  8 31  1  0
 31 33  1  0
 33 34  2  0
 34 35  1  0
 35 36  2  0
 36 37  1  0
 36 38  1  0
 38 39  2  0
  8  9  1  0
  9 10  2  0
 10  1  1  0
  9  4  1  0
 26 21  1  0
 39 33  1  0
 11 14  1  0
 13 15  1  0
 13 16  1  0
 19 20  1  0
 28 29  1  0
 28 30  1  0
 31 32  1  0
M  END
> <minimizedAffinity>
-9.33874

> <CNNscore>
0.9663574696

> <CNNaffinity>
7.3489727974

> <CNN_VS>
7.1017346382

> <CNNaffinity_variance>
0.0452476554

$$$$



 39 42  0  0  0  0  0  0  0  0999 V2000
   19.1491   18.7565   33.7118 C   0  0  0  0  0  0  0  0  0  0  0  0
   18.6064   17.5997   33.1623 C   0  0  0  0  0  0  0  0  0  0  0  0
   19.4277   16.4978   32.9342 C   0  0  0  0  0  0  0  0  0  0  0  0
   20.7993   16.5420   33.2365 C   0  0  0  0  0  0  0  0  0  0  0  0
   21.5889   15.4090   33.0115 C   0  0  0  0  0  0  0  0  0  0  0  0
   22.9501   15.4248   33.3159 C   0  0  0  0  0  0  0  0  0  0  0  0
   23.5317   16.5718   33.8604 C   0  0  0  0  0  0  0  0  0  0  0  0
   22.7850   17.7421   34.0673 C   0  0  0  0  0  0  0  0  0  0  0  0
   21.3823   17.7216   33.7773 C   0  0  0  0  0  0  0  0  0  0  0  0
   20.5159   18.8183   34.0127 C   0  0  0  0  0  0  0  0  0  0  0  0
   18.7352   21.1189   34.1666 N   0  0  0  0  0  0  0  0  0  0  0  0
   18.2706   19.9282   33.9634 C   0  0  0  0  0  0  0  0  0  0  0  0
   16.9168   19.7777   33.9794 N   0  0  0  0  0  0  0  0  0  0  0  0
   18.1168   21.8674   34.3296 H   0  0  0  0  0  0  0  0  0  0  0  0
   16.3370   20.5556   34.1464 H   0  0  0  0  0  0  0  0  0  0  0  0
   16.5182   18.8910   33.8241 H   0  0  0  0  0  0  0  0  0  0  0  0
   23.8045   14.2268   33.0890 C   0  0  0  0  0  0  0  0  0  0  0  0
   24.9846   14.3965   32.8127 O   0  0  0  0  0  0  0  0  0  0  0  0
   23.1346   13.0200   33.1875 N   0  0  0  0  0  0  0  0  0  0  0  0
   22.1677   13.0703   33.3660 H   0  0  0  0  0  0  0  0  0  0  0  0
   23.6814   11.7259   33.0607 C   0  0  0  0  0  0  0  0  0  0  0  0
   24.6741   11.3845   32.1424 C   0  0  0  0  0  0  0  0  0  0  0  0
   25.1688   10.0762   32.0832 C   0  0  0  0  0  0  0  0  0  0  0  0
   24.6756    9.0844   32.9392 C   0  0  0  0  0  0  0  0  0  0  0  0
   23.6890    9.4305   33.8691 C   0  0  0  0  0  0  0  0  0  0  0  0
   23.1959   10.7382   33.9265 C   0  0  0  0  0  0  0  0  0  0  0  0
   25.2288    7.6842   32.8893 C   0  0  0  0  0  0  0  0  0  0  0  0
   25.3270    7.2034   31.5165 N   0  0  0  0  0  0  0  0  0  0  0  0
   24.3986    7.1887   31.0942 H   0  0  0  0  0  0  0  0  0  0  0  0
   25.7168    6.2608   31.5134 H   0  0  0  0  0  0  0  0  0  0  0  0
   23.3731   18.8979   34.6189 N   0  0  0  0  0  0  0  0  0  0  0  0
   23.2574   19.6980   34.0572 H   0  0  0  0  0  0  0  0  0  0  0  0
   24.0831   19.1477   35.7901 C   0  0  0  0  0  0  0  0  0  0  0  0
   24.0345   18.1593   36.7041 N   0  0  0  0  0  0  0  0  0  0  0  0
   24.7299   18.3434   37.8495 C   0  0  0  0  0  0  0  0  0  0  0  0
   25.4677   19.4674   38.1101 C   0  0  0  0  0  0  0  0  0  0  0  0
   26.1459   19.6241   39.2510 F   0  0  0  0  0  0  0  0  0  0  0  0
   25.4648   20.4184   37.1258 C   0  0  0  0  0  0  0  0  0  0  0  0
   24.7857   20.2789   35.9664 N   0  0  0  0  0  0  0  0  0  0  0  0
 11 12  2  0
 12 13  1  0
 12  1  1  0
  1  2  2  0
  2  3  1  0
  3  4  2  0
  4  5  1  0
  5  6  2  0
  6 17  1  0
 17 18  2  0
 17 19  1  0
 19 21  1  0
 21 22  2  0
 22 23  1  0
 23 24  2  0
 24 27  1  0
 27 28  1  0
 24 25  1  0
 25 26  2  0
  6  7  1  0
  7  8  2  0
  8 31  1  0
 31 33  1  0
 33 34  2  0
 34 35  1  0
 35 36  2  0
 36 37  1  0
 36 38  1  0
 38 39  2  0
  8  9  1  0
  9 10  2  0
 10  1  1  0
  9  4  1  0
 26 21  1  0
 39 33  1  0
 11 14  1  0
 13 15  1  0
 13 16  1  0
 19 20  1  0
 28 29  1  0
 28 30  1  0
 31 32  1  0
M  END
> <minimizedAffinity>
-9.98397

> <CNNscore>
0.9445352554

> <CNNaffinity>
7.1719689369

> <CNN_VS>
6.7741775513

> <CNNaffinity_variance>
0.1383209676

$$$$



 39 42  0  0  0  0  0  0  0  0999 V2000
   19.0950   18.8036   33.7287 C   0  0  0  0  0  0  0  0  0  0  0  0
   18.5467   17.6449   33.1887 C   0  0  0  0  0  0  0  0  0  0  0  0
   19.3601   16.5331   32.9813 C   0  0  0  0  0  0  0  0  0  0  0  0
   20.7294   16.5689   33.2949 C   0  0  0  0  0  0  0  0  0  0  0  0
   21.5107   15.4263   33.0905 C   0  0  0  0  0  0  0  0  0  0  0  0
   22.8693   15.4339   33.4064 C   0  0  0  0  0  0  0  0  0  0  0  0
   23.4565   16.5823   33.9419 C   0  0  0  0  0  0  0  0  0  0  0  0
   22.7185   17.7616   34.1279 C   0  0  0  0  0  0  0  0  0  0  0  0
   21.3182   17.7499   33.8261 C   0  0  0  0  0  0  0  0  0  0  0  0
   20.4596   18.8570   34.0406 C   0  0  0  0  0  0  0  0  0  0  0  0
   18.6987   21.1723   34.1658 N   0  0  0  0  0  0  0  0  0  0  0  0
   18.2249   19.9860   33.9584 C   0  0  0  0  0  0  0  0  0  0  0  0
   16.8694   19.8505   33.9486 N   0  0  0  0  0  0  0  0  0  0  0  0
   18.0856   21.9283   34.3136 H   0  0  0  0  0  0  0  0  0  0  0  0
   16.2952   20.6355   34.1010 H   0  0  0  0  0  0  0  0  0  0  0  0
   16.4641   18.9676   33.7890 H   0  0  0  0  0  0  0  0  0  0  0  0
   23.7149   14.2257   33.2016 C   0  0  0  0  0  0  0  0  0  0  0  0
   23.1602   13.1478   33.0329 O   0  0  0  0  0  0  0  0  0  0  0  0
   25.0766   14.4643   33.2611 N   0  0  0  0  0  0  0  0  0  0  0  0
   25.3500   15.3892   33.4589 H   0  0  0  0  0  0  0  0  0  0  0  0
   26.1172   13.5312   33.0700 C   0  0  0  0  0  0  0  0  0  0  0  0
   26.8659   13.4261   31.8981 C   0  0  0  0  0  0  0  0  0  0  0  0
   27.8875   12.4751   31.7894 C   0  0  0  0  0  0  0  0  0  0  0  0
   28.1754   11.6086   32.8506 C   0  0  0  0  0  0  0  0  0  0  0  0
   27.4326   11.7232   34.0309 C   0  0  0  0  0  0  0  0  0  0  0  0
   26.4121   12.6739   34.1373 C   0  0  0  0  0  0  0  0  0  0  0  0
   29.2924   10.6041   32.7387 C   0  0  0  0  0  0  0  0  0  0  0  0
   29.3811    9.7770   33.9360 N   0  0  0  0  0  0  0  0  0  0  0  0
   29.5716   10.3688   34.7446 H   0  0  0  0  0  0  0  0  0  0  0  0
   30.1351    9.0990   33.8257 H   0  0  0  0  0  0  0  0  0  0  0  0
   23.3122   18.9189   34.6705 N   0  0  0  0  0  0  0  0  0  0  0  0
   23.2032   19.7144   34.1008 H   0  0  0  0  0  0  0  0  0  0  0  0
   24.0202   19.1754   35.8414 C   0  0  0  0  0  0  0  0  0  0  0  0
   23.9679   18.1932   36.7620 N   0  0  0  0  0  0  0  0  0  0  0  0
   24.6613   18.3838   37.9076 C   0  0  0  0  0  0  0  0  0  0  0  0
   25.4005   19.5083   38.1621 C   0  0  0  0  0  0  0  0  0  0  0  0
   26.0766   19.6714   39.3033 F   0  0  0  0  0  0  0  0  0  0  0  0
   25.4014   20.4526   37.1714 C   0  0  0  0  0  0  0  0  0  0  0  0
   24.7245   20.3065   36.0115 N   0  0  0  0  0  0  0  0  0  0  0  0
 11 12  2  0
 12 13  1  0
 12  1  1  0
  1  2  2  0
  2  3  1  0
  3  4  2  0
  4  5  1  0
  5  6  2  0
  6 17  1  0
 17 18  2  0
 17 19  1  0
 19 21  1  0
 21 22  2  0
 22 23  1  0
 23 24  2  0
 24 27  1  0
 27 28  1  0
 24 25  1  0
 25 26  2  0
  6  7  1  0
  7  8  2  0
  8 31  1  0
 31 33  1  0
 33 34  2  0
 34 35  1  0
 35 36  2  0
 36 37  1  0
 36 38  1  0
 38 39  2  0
  8  9  1  0
  9 10  2  0
 10  1  1  0
  9  4  1  0
 26 21  1  0
 39 33  1  0
 11 14  1  0
 13 15  1  0
 13 16  1  0
 19 20  1  0
 28 29  1  0
 28 30  1  0
 31 32  1  0
M  END
> <minimizedAffinity>
-8.63992

> <CNNscore>
0.8630574346

> <CNNaffinity>
6.9080967903

> <CNN_VS>
5.9620842934

> <CNNaffinity_variance>
0.1916519850

$$$$



 39 42  0  0  0  0  0  0  0  0999 V2000
   19.1805   18.6095   33.8104 C   0  0  0  0  0  0  0  0  0  0  0  0
   18.5434   17.4846   33.2970 C   0  0  0  0  0  0  0  0  0  0  0  0
   19.2792   16.3241   33.0680 C   0  0  0  0  0  0  0  0  0  0  0  0
   20.6583   16.2767   33.3333 C   0  0  0  0  0  0  0  0  0  0  0  0
   21.3603   15.0874   33.1088 C   0  0  0  0  0  0  0  0  0  0  0  0
   22.7271   15.0126   33.3770 C   0  0  0  0  0  0  0  0  0  0  0  0
   23.4023   16.1248   33.8846 C   0  0  0  0  0  0  0  0  0  0  0  0
   22.7450   17.3480   34.0891 C   0  0  0  0  0  0  0  0  0  0  0  0
   21.3369   17.4213   33.8365 C   0  0  0  0  0  0  0  0  0  0  0  0
   20.5560   18.5800   34.0741 C   0  0  0  0  0  0  0  0  0  0  0  0
   17.0993   19.8639   34.0433 N   0  0  0  0  0  0  0  0  0  0  0  0
   18.3932   19.8441   34.0632 C   0  0  0  0  0  0  0  0  0  0  0  0
   19.0291   21.0171   34.3377 N   0  0  0  0  0  0  0  0  0  0  0  0
   16.6172   20.7047   34.2164 H   0  0  0  0  0  0  0  0  0  0  0  0
   18.5052   21.8337   34.5048 H   0  0  0  0  0  0  0  0  0  0  0  0
   20.0126   21.0482   34.3690 H   0  0  0  0  0  0  0  0  0  0  0  0
   23.4892   13.7538   33.1501 C   0  0  0  0  0  0  0  0  0  0  0  0
   22.9644   12.6915   33.4566 O   0  0  0  0  0  0  0  0  0  0  0  0
   24.7589   13.9398   32.6323 N   0  0  0  0  0  0  0  0  0  0  0  0
   25.0420   14.8725   32.4938 H   0  0  0  0  0  0  0  0  0  0  0  0
   25.6932   12.9431   32.2807 C   0  0  0  0  0  0  0  0  0  0  0  0
   26.2634   12.0522   33.1898 C   0  0  0  0  0  0  0  0  0  0  0  0
   27.1808   11.0863   32.7592 C   0  0  0  0  0  0  0  0  0  0  0  0
   27.5477   10.9974   31.4112 C   0  0  0  0  0  0  0  0  0  0  0  0
   26.9654   11.8829   30.4975 C   0  0  0  0  0  0  0  0  0  0  0  0
   26.0492   12.8474   30.9298 C   0  0  0  0  0  0  0  0  0  0  0  0
   28.5156    9.9402   30.9482 C   0  0  0  0  0  0  0  0  0  0  0  0
   28.7767   10.0525   29.5183 N   0  0  0  0  0  0  0  0  0  0  0  0
   27.9056    9.9272   29.0028 H   0  0  0  0  0  0  0  0  0  0  0  0
   29.4445    9.3345   29.2372 H   0  0  0  0  0  0  0  0  0  0  0  0
   23.4274   18.4686   34.6036 N   0  0  0  0  0  0  0  0  0  0  0  0
   22.9407   18.9189   35.3313 H   0  0  0  0  0  0  0  0  0  0  0  0
   24.6440   19.0737   34.3006 C   0  0  0  0  0  0  0  0  0  0  0  0
   25.6972   18.2353   34.2510 N   0  0  0  0  0  0  0  0  0  0  0  0
   26.8982   18.7712   33.9349 C   0  0  0  0  0  0  0  0  0  0  0  0
   27.0817   20.1015   33.6659 C   0  0  0  0  0  0  0  0  0  0  0  0
   28.2802   20.6054   33.3561 F   0  0  0  0  0  0  0  0  0  0  0  0
   25.9580   20.8796   33.7348 C   0  0  0  0  0  0  0  0  0  0  0  0
   24.7384   20.3894   34.0465 N   0  0  0  0  0  0  0  0  0  0  0  0
 11 12  2  0
 12 13  1  0
 12  1  1  0
  1  2  2  0
  2  3  1  0
  3  4  2  0
  4  5  1  0
  5  6  2  0
  6 17  1  0
 17 18  2  0
 17 19  1  0
 19 21  1  0
 21 22  2  0
 22 23  1  0
 23 24  2  0
 24 27  1  0
 27 28  1  0
 24 25  1  0
 25 26  2  0
  6  7  1  0
  7  8  2  0
  8 31  1  0
 31 33  1  0
 33 34  2  0
 34 35  1  0
 35 36  2  0
 36 37  1  0
 36 38  1  0
 38 39  2  0
  8  9  1  0
  9 10  2  0
 10  1  1  0
  9  4  1  0
 26 21  1  0
 39 33  1  0
 11 14  1  0
 13 15  1  0
 13 16  1  0
 19 20  1  0
 28 29  1  0
 28 30  1  0
 31 32  1  0
M  END
> <minimizedAffinity>
-8.16545

> <CNNscore>
0.8424856663

> <CNNaffinity>
6.8383088112

> <CNN_VS>
5.7611770630

> <CNNaffinity_variance>
0.1022362337

$$$$



 39 42  0  0  0  0  0  0  0  0999 V2000
   19.1727   18.6005   33.8160 C   0  0  0  0  0  0  0  0  0  0  0  0
   18.5709   17.4068   33.4317 C   0  0  0  0  0  0  0  0  0  0  0  0
   19.3565   16.2718   33.2438 C   0  0  0  0  0  0  0  0  0  0  0  0
   20.7497   16.3177   33.4217 C   0  0  0  0  0  0  0  0  0  0  0  0
   21.5036   15.1527   33.2426 C   0  0  0  0  0  0  0  0  0  0  0  0
   22.8862   15.1708   33.4263 C   0  0  0  0  0  0  0  0  0  0  0  0
   23.5263   16.3534   33.8033 C   0  0  0  0  0  0  0  0  0  0  0  0
   22.8139   17.5529   33.9570 C   0  0  0  0  0  0  0  0  0  0  0  0
   21.3911   17.5324   33.7917 C   0  0  0  0  0  0  0  0  0  0  0  0
   20.5611   18.6639   33.9912 C   0  0  0  0  0  0  0  0  0  0  0  0
   17.0403   19.7785   33.9715 N   0  0  0  0  0  0  0  0  0  0  0  0
   18.3331   19.8084   34.0253 C   0  0  0  0  0  0  0  0  0  0  0  0
   18.9168   21.0095   34.2944 N   0  0  0  0  0  0  0  0  0  0  0  0
   16.5224   20.6031   34.1164 H   0  0  0  0  0  0  0  0  0  0  0  0
   18.3582   21.8083   34.4326 H   0  0  0  0  0  0  0  0  0  0  0  0
   19.8972   21.0787   34.3506 H   0  0  0  0  0  0  0  0  0  0  0  0
   23.7037   13.9396   33.2462 C   0  0  0  0  0  0  0  0  0  0  0  0
   24.8738   14.0612   32.9082 O   0  0  0  0  0  0  0  0  0  0  0  0
   23.0132   12.7591   33.4566 N   0  0  0  0  0  0  0  0  0  0  0  0
   22.0565   12.8450   33.6728 H   0  0  0  0  0  0  0  0  0  0  0  0
   23.5260   11.4463   33.3963 C   0  0  0  0  0  0  0  0  0  0  0  0
   23.6953   10.6226   34.5089 C   0  0  0  0  0  0  0  0  0  0  0  0
   24.2066    9.3274   34.3639 C   0  0  0  0  0  0  0  0  0  0  0  0
   24.5620    8.8346   33.1027 C   0  0  0  0  0  0  0  0  0  0  0  0
   24.3796    9.6567   31.9852 C   0  0  0  0  0  0  0  0  0  0  0  0
   23.8689   10.9506   32.1323 C   0  0  0  0  0  0  0  0  0  0  0  0
   25.0877    7.4314   32.9482 C   0  0  0  0  0  0  0  0  0  0  0  0
   25.3998    7.1344   31.5555 N   0  0  0  0  0  0  0  0  0  0  0  0
   24.5531    7.2157   30.9925 H   0  0  0  0  0  0  0  0  0  0  0  0
   25.7658    6.1850   31.4840 H   0  0  0  0  0  0  0  0  0  0  0  0
   23.4611   18.7449   34.3398 N   0  0  0  0  0  0  0  0  0  0  0  0
   22.8476   19.4152   34.7186 H   0  0  0  0  0  0  0  0  0  0  0  0
   24.7843   19.1752   34.2955 C   0  0  0  0  0  0  0  0  0  0  0  0
   25.3847   19.2861   35.4964 N   0  0  0  0  0  0  0  0  0  0  0  0
   26.6797   19.6764   35.5051 C   0  0  0  0  0  0  0  0  0  0  0  0
   27.3902   19.9538   34.3675 C   0  0  0  0  0  0  0  0  0  0  0  0
   28.6697   20.3380   34.4044 F   0  0  0  0  0  0  0  0  0  0  0  0
   26.7041   19.8113   33.1919 C   0  0  0  0  0  0  0  0  0  0  0  0
   25.4110   19.4245   33.1339 N   0  0  0  0  0  0  0  0  0  0  0  0
 11 12  2  0
 12 13  1  0
 12  1  1  0
  1  2  2  0
  2  3  1  0
  3  4  2  0
  4  5  1  0
  5  6  2  0
  6 17  1  0
 17 18  2  0
 17 19  1  0
 19 21  1  0
 21 22  2  0
 22 23  1  0
 23 24  2  0
 24 27  1  0
 27 28  1  0
 24 25  1  0
 25 26  2  0
  6  7  1  0
  7  8  2  0
  8 31  1  0
 31 33  1  0
 33 34  2  0
 34 35  1  0
 35 36  2  0
 36 37  1  0
 36 38  1  0
 38 39  2  0
  8  9  1  0
  9 10  2  0
 10  1  1  0
  9  4  1  0
 26 21  1  0
 39 33  1  0
 11 14  1  0
 13 15  1  0
 13 16  1  0
 19 20  1  0
 28 29  1  0
 28 30  1  0
 31 32  1  0
M  END
> <minimizedAffinity>
-9.40418

> <CNNscore>
0.7790051699

> <CNNaffinity>
6.8890380859

> <CNN_VS>
5.3665962219

> <CNNaffinity_variance>
0.0866600499

$$$$



 39 42  0  0  0  0  0  0  0  0999 V2000
   26.8808   10.3310   30.6008 C   0  0  0  0  0  0  0  0  0  0  0  0
   27.2657   11.5753   30.1125 C   0  0  0  0  0  0  0  0  0  0  0  0
   26.6030   12.7193   30.5514 C   0  0  0  0  0  0  0  0  0  0  0  0
   25.5414   12.6346   31.4683 C   0  0  0  0  0  0  0  0  0  0  0  0
   24.9124   13.8073   31.9007 C   0  0  0  0  0  0  0  0  0  0  0  0
   23.8650   13.7491   32.8202 C   0  0  0  0  0  0  0  0  0  0  0  0
   23.4453   12.5166   33.3253 C   0  0  0  0  0  0  0  0  0  0  0  0
   24.0231   11.3137   32.8906 C   0  0  0  0  0  0  0  0  0  0  0  0
   25.1141   11.3716   31.9640 C   0  0  0  0  0  0  0  0  0  0  0  0
   25.8203   10.2295   31.5104 C   0  0  0  0  0  0  0  0  0  0  0  0
   27.8642    8.1205   30.9262 N   0  0  0  0  0  0  0  0  0  0  0  0
   27.5943    9.1120   30.1394 C   0  0  0  0  0  0  0  0  0  0  0  0
   27.9864    8.9992   28.8397 N   0  0  0  0  0  0  0  0  0  0  0  0
   28.3392    7.3314   30.5785 H   0  0  0  0  0  0  0  0  0  0  0  0
   28.4589    8.1905   28.5365 H   0  0  0  0  0  0  0  0  0  0  0  0
   27.7973    9.7264   28.2036 H   0  0  0  0  0  0  0  0  0  0  0  0
   23.1880   14.9867   33.2963 C   0  0  0  0  0  0  0  0  0  0  0  0
   23.7974   15.7296   34.0544 O   0  0  0  0  0  0  0  0  0  0  0  0
   21.8918   15.1418   32.8374 N   0  0  0  0  0  0  0  0  0  0  0  0
   21.5382   14.4165   32.2735 H   0  0  0  0  0  0  0  0  0  0  0  0
   21.0203   16.2226   33.0868 C   0  0  0  0  0  0  0  0  0  0  0  0
   21.2706   17.2277   34.0208 C   0  0  0  0  0  0  0  0  0  0  0  0
   20.3558   18.2713   34.2052 C   0  0  0  0  0  0  0  0  0  0  0  0
   19.1713   18.3255   33.4611 C   0  0  0  0  0  0  0  0  0  0  0  0
   18.9269   17.3240   32.5149 C   0  0  0  0  0  0  0  0  0  0  0  0
   19.8421   16.2820   32.3323 C   0  0  0  0  0  0  0  0  0  0  0  0
   18.2020   19.4639   33.6446 C   0  0  0  0  0  0  0  0  0  0  0  0
   18.5713   20.2936   34.7850 N   0  0  0  0  0  0  0  0  0  0  0  0
   18.5568   19.7296   35.6348 H   0  0  0  0  0  0  0  0  0  0  0  0
   17.9068   21.0621   34.8757 H   0  0  0  0  0  0  0  0  0  0  0  0
   23.5998   10.0709   33.4031 N   0  0  0  0  0  0  0  0  0  0  0  0
   22.6212    9.9634   33.4011 H   0  0  0  0  0  0  0  0  0  0  0  0
   24.2725    8.9632   33.9116 C   0  0  0  0  0  0  0  0  0  0  0  0
   24.6939    9.0913   35.1847 N   0  0  0  0  0  0  0  0  0  0  0  0
   25.3308    8.0316   35.7333 C   0  0  0  0  0  0  0  0  0  0  0  0
   25.5564    6.8589   35.0628 C   0  0  0  0  0  0  0  0  0  0  0  0
   26.1889    5.8267   35.6288 F   0  0  0  0  0  0  0  0  0  0  0  0
   25.0914    6.8140   33.7764 C   0  0  0  0  0  0  0  0  0  0  0  0
   24.4503    7.8465   33.1865 N   0  0  0  0  0  0  0  0  0  0  0  0
 11 12  2  0
 12 13  1  0
 12  1  1  0
  1  2  2  0
  2  3  1  0
  3  4  2  0
  4  5  1  0
  5  6  2  0
  6 17  1  0
 17 18  2  0
 17 19  1  0
 19 21  1  0
 21 22  2  0
 22 23  1  0
 23 24  2  0
 24 27  1  0
 27 28  1  0
 24 25  1  0
 25 26  2  0
  6  7  1  0
  7  8  2  0
  8 31  1  0
 31 33  1  0
 33 34  2  0
 34 35  1  0
 35 36  2  0
 36 37  1  0
 36 38  1  0
 38 39  2  0
  8  9  1  0
  9 10  2  0
 10  1  1  0
  9  4  1  0
 26 21  1  0
 39 33  1  0
 11 14  1  0
 13 15  1  0
 13 16  1  0
 19 20  1  0
 28 29  1  0
 28 30  1  0
 31 32  1  0
M  END
> <minimizedAffinity>
-9.35690

> <CNNscore>
0.6332584023

> <CNNaffinity>
6.8035526276

> <CNN_VS>
4.3084068298

> <CNNaffinity_variance>
0.0584698133

$$$$



 39 42  0  0  0  0  0  0  0  0999 V2000
   28.0679   12.1051   32.6691 C   0  0  0  0  0  0  0  0  0  0  0  0
   28.5213   13.3555   33.0762 C   0  0  0  0  0  0  0  0  0  0  0  0
   27.5988   14.3560   33.3744 C   0  0  0  0  0  0  0  0  0  0  0  0
   26.2176   14.1263   33.2557 C   0  0  0  0  0  0  0  0  0  0  0  0
   25.3208   15.1495   33.5825 C   0  0  0  0  0  0  0  0  0  0  0  0
   23.9451   14.9407   33.4849 C   0  0  0  0  0  0  0  0  0  0  0  0
   23.4533   13.7010   33.0708 C   0  0  0  0  0  0  0  0  0  0  0  0
   24.3174   12.6597   32.6976 C   0  0  0  0  0  0  0  0  0  0  0  0
   25.7302   12.8633   32.8187 C   0  0  0  0  0  0  0  0  0  0  0  0
   26.6943   11.8625   32.5399 C   0  0  0  0  0  0  0  0  0  0  0  0
   29.4947   10.8179   31.1637 N   0  0  0  0  0  0  0  0  0  0  0  0
   29.0521   11.0356   32.3602 C   0  0  0  0  0  0  0  0  0  0  0  0
   29.5334   10.2400   33.3557 N   0  0  0  0  0  0  0  0  0  0  0  0
   30.1470   10.0980   31.0035 H   0  0  0  0  0  0  0  0  0  0  0  0
   30.1854    9.5321   33.1484 H   0  0  0  0  0  0  0  0  0  0  0  0
   29.2292   10.3729   34.2826 H   0  0  0  0  0  0  0  0  0  0  0  0
   22.9759   16.0156   33.8342 C   0  0  0  0  0  0  0  0  0  0  0  0
   23.2648   16.7900   34.7369 O   0  0  0  0  0  0  0  0  0  0  0  0
   21.8063   15.9930   33.0950 N   0  0  0  0  0  0  0  0  0  0  0  0
   21.7170   15.2628   32.4407 H   0  0  0  0  0  0  0  0  0  0  0  0
   20.7276   16.8986   33.1738 C   0  0  0  0  0  0  0  0  0  0  0  0
   19.4651   16.6576   32.6324 C   0  0  0  0  0  0  0  0  0  0  0  0
   18.4440   17.6071   32.7583 C   0  0  0  0  0  0  0  0  0  0  0  0
   18.6695   18.8174   33.4247 C   0  0  0  0  0  0  0  0  0  0  0  0
   19.9325   19.0530   33.9790 C   0  0  0  0  0  0  0  0  0  0  0  0
   20.9514   18.1031   33.8519 C   0  0  0  0  0  0  0  0  0  0  0  0
   17.5607   19.8251   33.5800 C   0  0  0  0  0  0  0  0  0  0  0  0
   18.0821   21.1277   33.9759 N   0  0  0  0  0  0  0  0  0  0  0  0
   18.5582   21.0446   34.8742 H   0  0  0  0  0  0  0  0  0  0  0  0
   17.3119   21.7912   34.0595 H   0  0  0  0  0  0  0  0  0  0  0  0
   23.8194   11.4085   32.2822 N   0  0  0  0  0  0  0  0  0  0  0  0
   23.0552   11.4803   31.6656 H   0  0  0  0  0  0  0  0  0  0  0  0
   24.1792   10.0925   32.5590 C   0  0  0  0  0  0  0  0  0  0  0  0
   24.1655    9.7640   33.8654 N   0  0  0  0  0  0  0  0  0  0  0  0
   24.4830    8.4885   34.1842 C   0  0  0  0  0  0  0  0  0  0  0  0
   24.8072    7.5379   33.2530 C   0  0  0  0  0  0  0  0  0  0  0  0
   25.1173    6.2839   33.5955 F   0  0  0  0  0  0  0  0  0  0  0  0
   24.7921    7.9567   31.9502 C   0  0  0  0  0  0  0  0  0  0  0  0
   24.4818    9.2194   31.5840 N   0  0  0  0  0  0  0  0  0  0  0  0
 11 12  2  0
 12 13  1  0
 12  1  1  0
  1  2  2  0
  2  3  1  0
  3  4  2  0
  4  5  1  0
  5  6  2  0
  6 17  1  0
 17 18  2  0
 17 19  1  0
 19 21  1  0
 21 22  2  0
 22 23  1  0
 23 24  2  0
 24 27  1  0
 27 28  1  0
 24 25  1  0
 25 26  2  0
  6  7  1  0
  7  8  2  0
  8 31  1  0
 31 33  1  0
 33 34  2  0
 34 35  1  0
 35 36  2  0
 36 37  1  0
 36 38  1  0
 38 39  2  0
  8  9  1  0
  9 10  2  0
 10  1  1  0
  9  4  1  0
 26 21  1  0
 39 33  1  0
 11 14  1  0
 13 15  1  0
 13 16  1  0
 19 20  1  0
 28 29  1  0
 28 30  1  0
 31 32  1  0
M  END
> <minimizedAffinity>
-8.19147

> <CNNscore>
0.3644935191

> <CNNaffinity>
6.5864348412

> <CNN_VS>
2.4007127285

> <CNNaffinity_variance>
0.1347443312

$$$$



 39 42  0  0  0  0  0  0  0  0999 V2000
   28.2958   12.4237   34.9938 C   0  0  0  0  0  0  0  0  0  0  0  0
   28.3619   13.8088   35.1028 C   0  0  0  0  0  0  0  0  0  0  0  0
   27.3015   14.5847   34.6400 C   0  0  0  0  0  0  0  0  0  0  0  0
   26.1725   13.9907   34.0507 C   0  0  0  0  0  0  0  0  0  0  0  0
   25.1187   14.8015   33.6149 C   0  0  0  0  0  0  0  0  0  0  0  0
   23.9823   14.2337   33.0387 C   0  0  0  0  0  0  0  0  0  0  0  0
   23.8846   12.8471   32.9044 C   0  0  0  0  0  0  0  0  0  0  0  0
   24.9336   11.9995   33.2935 C   0  0  0  0  0  0  0  0  0  0  0  0
   26.0920   12.5778   33.9066 C   0  0  0  0  0  0  0  0  0  0  0  0
   27.1799   11.8169   34.4030 C   0  0  0  0  0  0  0  0  0  0  0  0
   30.4443   12.1041   36.1076 N   0  0  0  0  0  0  0  0  0  0  0  0
   29.4231   11.5962   35.4961 C   0  0  0  0  0  0  0  0  0  0  0  0
   29.4073   10.2444   35.3289 N   0  0  0  0  0  0  0  0  0  0  0  0
   31.1697   11.5187   36.4242 H   0  0  0  0  0  0  0  0  0  0  0  0
   30.1555    9.6983   35.6626 H   0  0  0  0  0  0  0  0  0  0  0  0
   28.6478    9.8134   34.8744 H   0  0  0  0  0  0  0  0  0  0  0  0
   22.8486   15.0801   32.5750 C   0  0  0  0  0  0  0  0  0  0  0  0
   22.6062   15.1238   31.3761 O   0  0  0  0  0  0  0  0  0  0  0  0
   22.1993   15.7688   33.5844 N   0  0  0  0  0  0  0  0  0  0  0  0
   22.5620   15.6575   34.4928 H   0  0  0  0  0  0  0  0  0  0  0  0
   21.0759   16.6126   33.4579 C   0  0  0  0  0  0  0  0  0  0  0  0
   19.9252   16.2784   32.7443 C   0  0  0  0  0  0  0  0  0  0  0  0
   18.8492   17.1711   32.6710 C   0  0  0  0  0  0  0  0  0  0  0  0
   18.9072   18.4167   33.3072 C   0  0  0  0  0  0  0  0  0  0  0  0
   20.0567   18.7461   34.0340 C   0  0  0  0  0  0  0  0  0  0  0  0
   21.1308   17.8528   34.1057 C   0  0  0  0  0  0  0  0  0  0  0  0
   17.7371   19.3635   33.2471 C   0  0  0  0  0  0  0  0  0  0  0  0
   17.8777   20.4397   34.2205 N   0  0  0  0  0  0  0  0  0  0  0  0
   17.9139   20.0454   35.1605 H   0  0  0  0  0  0  0  0  0  0  0  0
   17.0799   21.0709   34.1470 H   0  0  0  0  0  0  0  0  0  0  0  0
   24.8324   10.6003   33.1593 N   0  0  0  0  0  0  0  0  0  0  0  0
   24.2540   10.1860   33.8398 H   0  0  0  0  0  0  0  0  0  0  0  0
   25.3771    9.6798   32.2682 C   0  0  0  0  0  0  0  0  0  0  0  0
   26.1882   10.2092   31.3318 N   0  0  0  0  0  0  0  0  0  0  0  0
   26.7630    9.3520   30.4575 C   0  0  0  0  0  0  0  0  0  0  0  0
   26.5609    7.9978   30.4874 C   0  0  0  0  0  0  0  0  0  0  0  0
   27.1416    7.1728   29.6109 F   0  0  0  0  0  0  0  0  0  0  0  0
   25.7264    7.5457   31.4734 C   0  0  0  0  0  0  0  0  0  0  0  0
   25.1299    8.3633   32.3683 N   0  0  0  0  0  0  0  0  0  0  0  0
 11 12  2  0
 12 13  1  0
 12  1  1  0
  1  2  2  0
  2  3  1  0
  3  4  2  0
  4  5  1  0
  5  6  2  0
  6 17  1  0
 17 18  2  0
 17 19  1  0
 19 21  1  0
 21 22  2  0
 22 23  1  0
 23 24  2  0
 24 27  1  0
 27 28  1  0
 24 25  1  0
 25 26  2  0
  6  7  1  0
  7  8  2  0
  8 31  1  0
 31 33  1  0
 33 34  2  0
 34 35  1  0
 35 36  2  0
 36 37  1  0
 36 38  1  0
 38 39  2  0
  8  9  1  0
  9 10  2  0
 10  1  1  0
  9  4  1  0
 26 21  1  0
 39 33  1  0
 11 14  1  0
 13 15  1  0
 13 16  1  0
 19 20  1  0
 28 29  1  0
 28 30  1  0
 31 32  1  0
M  END
> <minimizedAffinity>
-7.90943

> <CNNscore>
0.3220367730

> <CNNaffinity>
6.4769930840

> <CNN_VS>
2.0858299732

> <CNNaffinity_variance>
0.0914395228

$$$$



 39 42  0  0  0  0  0  0  0  0999 V2000
   29.0277   14.0172   34.8211 C   0  0  0  0  0  0  0  0  0  0  0  0
   28.4323   15.0035   35.6005 C   0  0  0  0  0  0  0  0  0  0  0  0
   27.1655   15.4739   35.2618 C   0  0  0  0  0  0  0  0  0  0  0  0
   26.4860   14.9784   34.1360 C   0  0  0  0  0  0  0  0  0  0  0  0
   25.2070   15.4614   33.8383 C   0  0  0  0  0  0  0  0  0  0  0  0
   24.5078   14.9752   32.7336 C   0  0  0  0  0  0  0  0  0  0  0  0
   25.0777   13.9913   31.9228 C   0  0  0  0  0  0  0  0  0  0  0  0
   26.3727   13.5061   32.1630 C   0  0  0  0  0  0  0  0  0  0  0  0
   27.0840   13.9866   33.3099 C   0  0  0  0  0  0  0  0  0  0  0  0
   28.3657   13.5177   33.6920 C   0  0  0  0  0  0  0  0  0  0  0  0
   31.3347   14.2883   35.5716 N   0  0  0  0  0  0  0  0  0  0  0  0
   30.3749   13.5093   35.1882 C   0  0  0  0  0  0  0  0  0  0  0  0
   30.6402   12.1741   35.1374 N   0  0  0  0  0  0  0  0  0  0  0  0
   32.2126   13.9092   35.8057 H   0  0  0  0  0  0  0  0  0  0  0  0
   31.5336   11.8401   35.3812 H   0  0  0  0  0  0  0  0  0  0  0  0
   29.9385   11.5431   34.8568 H   0  0  0  0  0  0  0  0  0  0  0  0
   23.1435   15.4728   32.4050 C   0  0  0  0  0  0  0  0  0  0  0  0
   22.5988   15.0540   31.3921 O   0  0  0  0  0  0  0  0  0  0  0  0
   22.6464   16.4081   33.2954 N   0  0  0  0  0  0  0  0  0  0  0  0
   23.2445   16.6716   34.0316 H   0  0  0  0  0  0  0  0  0  0  0  0
   21.3787   17.0263   33.2667 C   0  0  0  0  0  0  0  0  0  0  0  0
   21.0714   18.2082   33.9402 C   0  0  0  0  0  0  0  0  0  0  0  0
   19.7882   18.7616   33.8565 C   0  0  0  0  0  0  0  0  0  0  0  0
   18.7876   18.1395   33.1005 C   0  0  0  0  0  0  0  0  0  0  0  0
   19.1003   16.9607   32.4144 C   0  0  0  0  0  0  0  0  0  0  0  0
   20.3829   16.4093   32.4996 C   0  0  0  0  0  0  0  0  0  0  0  0
   17.4157   18.7520   32.9925 C   0  0  0  0  0  0  0  0  0  0  0  0
   17.2045   19.7602   34.0242 N   0  0  0  0  0  0  0  0  0  0  0  0
   17.2827   19.3268   34.9442 H   0  0  0  0  0  0  0  0  0  0  0  0
   16.2749   20.1663   33.9175 H   0  0  0  0  0  0  0  0  0  0  0  0
   26.9454   12.5116   31.3451 N   0  0  0  0  0  0  0  0  0  0  0  0
   26.9668   11.6241   31.7707 H   0  0  0  0  0  0  0  0  0  0  0  0
   27.4871   12.5183   30.0627 C   0  0  0  0  0  0  0  0  0  0  0  0
   27.4477   11.3326   29.4245 N   0  0  0  0  0  0  0  0  0  0  0  0
   27.9390   11.2933   28.1649 C   0  0  0  0  0  0  0  0  0  0  0  0
   28.4600   12.3865   27.5254 C   0  0  0  0  0  0  0  0  0  0  0  0
   28.9393   12.3200   26.2796 F   0  0  0  0  0  0  0  0  0  0  0  0
   28.4570   13.5504   28.2455 C   0  0  0  0  0  0  0  0  0  0  0  0
   27.9775   13.6379   29.5054 N   0  0  0  0  0  0  0  0  0  0  0  0
 11 12  2  0
 12 13  1  0
 12  1  1  0
  1  2  2  0
  2  3  1  0
  3  4  2  0
  4  5  1  0
  5  6  2  0
  6 17  1  0
 17 18  2  0
 17 19  1  0
 19 21  1  0
 21 22  2  0
 22 23  1  0
 23 24  2  0
 24 27  1  0
 27 28  1  0
 24 25  1  0
 25 26  2  0
  6  7  1  0
  7  8  2  0
  8 31  1  0
 31 33  1  0
 33 34  2  0
 34 35  1  0
 35 36  2  0
 36 37  1  0
 36 38  1  0
 38 39  2  0
  8  9  1  0
  9 10  2  0
 10  1  1  0
  9  4  1  0
 26 21  1  0
 39 33  1  0
 11 14  1  0
 13 15  1  0
 13 16  1  0
 19 20  1  0
 28 29  1  0
 28 30  1  0
 31 32  1  0
M  END
> <minimizedAffinity>
-6.75552

> <CNNscore>
0.2700577378

> <CNNaffinity>
6.4806098938

> <CNN_VS>
1.7501388788

> <CNNaffinity_variance>
0.1220659986

$$$$
