


 24 26  0  0  0  0  0  0  0  0999 V2000
  -10.5737   59.8497    9.8774 O   0  0  0  0  0  0  0  0  0  0  0  0
  -11.2859   59.1040   10.5378 C   0  0  0  0  0  0  0  0  0  0  0  0
  -10.9925   57.8141   10.9409 N   0  0  0  0  0  0  0  0  0  0  0  0
  -11.6568   57.3746   11.5196 H   0  0  0  0  0  0  0  0  0  0  0  0
  -12.5996   59.6269   11.0037 C   0  0  0  0  0  0  0  0  0  0  0  0
  -13.0976   59.1729   12.2296 C   0  0  0  0  0  0  0  0  0  0  0  0
  -14.3182   59.6503   12.6910 C   0  0  0  0  0  0  0  0  0  0  0  0
  -14.7989   59.2068   13.8595 F   0  0  0  0  0  0  0  0  0  0  0  0
  -15.0510   60.5793   11.9623 C   0  0  0  0  0  0  0  0  0  0  0  0
  -14.5424   61.0431   10.7523 C   0  0  0  0  0  0  0  0  0  0  0  0
  -15.5152   62.3237    9.7585 Br  0  0  0  0  0  0  0  0  0  0  0  0
  -13.3186   60.5780   10.2664 C   0  0  0  0  0  0  0  0  0  0  0  0
   -9.8460   57.0580   10.6145 C   0  0  0  0  0  0  0  0  0  0  0  0
   -9.4163   56.8144    9.3118 C   0  0  0  0  0  0  0  0  0  0  0  0
   -8.2715   56.0494    9.0772 C   0  0  0  0  0  0  0  0  0  0  0  0
   -7.5447   55.5172   10.1440 C   0  0  0  0  0  0  0  0  0  0  0  0
   -7.9567   55.7441   11.4628 C   0  0  0  0  0  0  0  0  0  0  0  0
   -9.1122   56.5162   11.6794 C   0  0  0  0  0  0  0  0  0  0  0  0
   -7.2353   55.2095   12.6160 C   0  0  0  0  0  0  0  0  0  0  0  0
   -6.3996   55.8592   13.4073 N   0  0  0  0  0  0  0  0  0  0  0  0
   -5.9651   54.9593   14.3488 N   0  0  0  0  0  0  0  0  0  0  0  0
   -6.5131   53.7705   14.1542 N   0  0  0  0  0  0  0  0  0  0  0  0
   -7.2991   53.9234   13.0815 N   0  0  0  0  0  0  0  0  0  0  0  0
   -7.8473   53.2096   12.6823 H   0  0  0  0  0  0  0  0  0  0  0  0
  1  2  2  0
  2  3  1  0
  3 13  1  0
 13 14  2  0
 14 15  1  0
 15 16  2  0
 16 17  1  0
 17 19  1  0
 19 20  2  0
 20 21  1  0
 21 22  2  0
 22 23  1  0
 17 18  2  0
  2  5  1  0
  5  6  2  0
  6  7  1  0
  7  8  1  0
  7  9  2  0
  9 10  1  0
 10 11  1  0
 10 12  2  0
 18 13  1  0
 12  5  1  0
 23 19  1  0
  3  4  1  0
 23 24  1  0
M  END
> <minimizedAffinity>
-6.87644

> <CNNscore>
0.5893437266

> <CNNaffinity>
4.8305373192

> <CNN_VS>
2.8468468189

> <CNNaffinity_variance>
0.2177889496

$$$$



 24 26  0  0  0  0  0  0  0  0999 V2000
   -9.0711   55.8913   13.5621 O   0  0  0  0  0  0  0  0  0  0  0  0
   -8.6252   55.9559   12.4235 C   0  0  0  0  0  0  0  0  0  0  0  0
   -7.5491   55.2555   11.9102 N   0  0  0  0  0  0  0  0  0  0  0  0
   -7.3598   55.3837   10.9526 H   0  0  0  0  0  0  0  0  0  0  0  0
   -9.3181   56.8475   11.4534 C   0  0  0  0  0  0  0  0  0  0  0  0
   -9.0462   56.6843   10.0908 C   0  0  0  0  0  0  0  0  0  0  0  0
   -9.6846   57.4989    9.1637 C   0  0  0  0  0  0  0  0  0  0  0  0
   -9.4154   57.3488    7.8605 F   0  0  0  0  0  0  0  0  0  0  0  0
  -10.5970   58.4679    9.5628 C   0  0  0  0  0  0  0  0  0  0  0  0
  -10.8792   58.6138   10.9182 C   0  0  0  0  0  0  0  0  0  0  0  0
  -12.1348   59.9118   11.4775 Br  0  0  0  0  0  0  0  0  0  0  0  0
  -10.2502   57.8082   11.8698 C   0  0  0  0  0  0  0  0  0  0  0  0
   -6.6918   54.3770   12.6074 C   0  0  0  0  0  0  0  0  0  0  0  0
   -7.0862   53.6009   13.6951 C   0  0  0  0  0  0  0  0  0  0  0  0
   -6.1703   52.7606   14.3321 C   0  0  0  0  0  0  0  0  0  0  0  0
   -4.8481   52.6890   13.8892 C   0  0  0  0  0  0  0  0  0  0  0  0
   -4.4248   53.4610   12.8004 C   0  0  0  0  0  0  0  0  0  0  0  0
   -5.3610   54.3018   12.1720 C   0  0  0  0  0  0  0  0  0  0  0  0
   -3.0532   53.4268   12.2969 C   0  0  0  0  0  0  0  0  0  0  0  0
   -1.9419   53.5918   12.9929 N   0  0  0  0  0  0  0  0  0  0  0  0
   -0.8992   53.4787   12.1070 N   0  0  0  0  0  0  0  0  0  0  0  0
   -1.3433   53.2491   10.8816 N   0  0  0  0  0  0  0  0  0  0  0  0
   -2.6765   53.2175   10.9972 N   0  0  0  0  0  0  0  0  0  0  0  0
   -3.3001   53.0649   10.2508 H   0  0  0  0  0  0  0  0  0  0  0  0
  1  2  2  0
  2  3  1  0
  3 13  1  0
 13 14  2  0
 14 15  1  0
 15 16  2  0
 16 17  1  0
 17 19  1  0
 19 20  2  0
 20 21  1  0
 21 22  2  0
 22 23  1  0
 17 18  2  0
  2  5  1  0
  5  6  2  0
  6  7  1  0
  7  8  1  0
  7  9  2  0
  9 10  1  0
 10 11  1  0
 10 12  2  0
 18 13  1  0
 12  5  1  0
 23 19  1  0
  3  4  1  0
 23 24  1  0
M  END
> <minimizedAffinity>
-8.83578

> <CNNscore>
0.5462598205

> <CNNaffinity>
4.9207167625

> <CNN_VS>
2.6879899502

> <CNNaffinity_variance>
0.6791346669

$$$$



 24 26  0  0  0  0  0  0  0  0999 V2000
   -2.0315   53.5640   13.1254 O   0  0  0  0  0  0  0  0  0  0  0  0
   -2.3746   53.0128   12.0872 C   0  0  0  0  0  0  0  0  0  0  0  0
   -3.6679   52.7906   11.6510 N   0  0  0  0  0  0  0  0  0  0  0  0
   -3.7656   52.3835   10.7600 H   0  0  0  0  0  0  0  0  0  0  0  0
   -1.3075   52.5551   11.1556 C   0  0  0  0  0  0  0  0  0  0  0  0
   -1.0507   51.1830   11.0632 C   0  0  0  0  0  0  0  0  0  0  0  0
   -0.0646   50.7286   10.1962 C   0  0  0  0  0  0  0  0  0  0  0  0
    0.1874   49.4158   10.1166 F   0  0  0  0  0  0  0  0  0  0  0  0
    0.6665   51.6108    9.4100 C   0  0  0  0  0  0  0  0  0  0  0  0
    0.3944   52.9736    9.4907 C   0  0  0  0  0  0  0  0  0  0  0  0
    1.3638   54.1862    8.4119 Br  0  0  0  0  0  0  0  0  0  0  0  0
   -0.5910   53.4555   10.3550 C   0  0  0  0  0  0  0  0  0  0  0  0
   -4.8636   53.0829   12.3421 C   0  0  0  0  0  0  0  0  0  0  0  0
   -5.1860   52.5689   13.5964 C   0  0  0  0  0  0  0  0  0  0  0  0
   -6.3957   52.9058   14.2079 C   0  0  0  0  0  0  0  0  0  0  0  0
   -7.2980   53.7593   13.5700 C   0  0  0  0  0  0  0  0  0  0  0  0
   -7.0001   54.2870   12.3078 C   0  0  0  0  0  0  0  0  0  0  0  0
   -5.7776   53.9360   11.7073 C   0  0  0  0  0  0  0  0  0  0  0  0
   -7.9084   55.1825   11.5944 C   0  0  0  0  0  0  0  0  0  0  0  0
   -9.1442   54.9227   11.2042 N   0  0  0  0  0  0  0  0  0  0  0  0
   -9.6068   56.0523   10.5757 N   0  0  0  0  0  0  0  0  0  0  0  0
   -8.6838   57.0007   10.5690 N   0  0  0  0  0  0  0  0  0  0  0  0
   -7.6315   56.4637   11.1984 N   0  0  0  0  0  0  0  0  0  0  0  0
   -6.7765   56.9261   11.3551 H   0  0  0  0  0  0  0  0  0  0  0  0
  1  2  2  0
  2  3  1  0
  3 13  1  0
 13 14  2  0
 14 15  1  0
 15 16  2  0
 16 17  1  0
 17 19  1  0
 19 20  2  0
 20 21  1  0
 21 22  2  0
 22 23  1  0
 17 18  2  0
  2  5  1  0
  5  6  2  0
  6  7  1  0
  7  8  1  0
  7  9  2  0
  9 10  1  0
 10 11  1  0
 10 12  2  0
 18 13  1  0
 12  5  1  0
 23 19  1  0
  3  4  1  0
 23 24  1  0
M  END
> <minimizedAffinity>
-7.72234

> <CNNscore>
0.4784748554

> <CNNaffinity>
5.0314803123

> <CNN_VS>
2.4074368477

> <CNNaffinity_variance>
0.1966768950

$$$$



 24 26  0  0  0  0  0  0  0  0999 V2000
   -8.8674   55.8285   13.6057 O   0  0  0  0  0  0  0  0  0  0  0  0
   -8.5377   55.8007   12.4268 C   0  0  0  0  0  0  0  0  0  0  0  0
   -7.5746   54.9927   11.8507 N   0  0  0  0  0  0  0  0  0  0  0  0
   -7.4763   55.0576   10.8732 H   0  0  0  0  0  0  0  0  0  0  0  0
   -9.2595   56.6947   11.4801 C   0  0  0  0  0  0  0  0  0  0  0  0
   -8.9670   56.5915   10.1160 C   0  0  0  0  0  0  0  0  0  0  0  0
   -9.6314   57.4094    9.2103 C   0  0  0  0  0  0  0  0  0  0  0  0
   -9.3428   57.3171    7.9059 F   0  0  0  0  0  0  0  0  0  0  0  0
  -10.5898   58.3229    9.6322 C   0  0  0  0  0  0  0  0  0  0  0  0
  -10.8917   58.4086   10.9884 C   0  0  0  0  0  0  0  0  0  0  0  0
  -12.2089   59.6299   11.5778 Br  0  0  0  0  0  0  0  0  0  0  0  0
  -10.2373   57.5983   11.9187 C   0  0  0  0  0  0  0  0  0  0  0  0
   -6.7169   54.0852   12.5091 C   0  0  0  0  0  0  0  0  0  0  0  0
   -6.1173   54.3322   13.7422 C   0  0  0  0  0  0  0  0  0  0  0  0
   -5.2757   53.3799   14.3215 C   0  0  0  0  0  0  0  0  0  0  0  0
   -5.0225   52.1701   13.6721 C   0  0  0  0  0  0  0  0  0  0  0  0
   -5.6096   51.8982   12.4304 C   0  0  0  0  0  0  0  0  0  0  0  0
   -6.4537   52.8693   11.8623 C   0  0  0  0  0  0  0  0  0  0  0  0
   -5.3775   50.6501   11.7062 C   0  0  0  0  0  0  0  0  0  0  0  0
   -4.2731   49.9241   11.6984 N   0  0  0  0  0  0  0  0  0  0  0  0
   -4.5139   48.8457   10.8834 N   0  0  0  0  0  0  0  0  0  0  0  0
   -5.7404   48.8922   10.3885 N   0  0  0  0  0  0  0  0  0  0  0  0
   -6.2761   50.0089   10.8961 N   0  0  0  0  0  0  0  0  0  0  0  0
   -7.1901   50.3256   10.7124 H   0  0  0  0  0  0  0  0  0  0  0  0
  1  2  2  0
  2  3  1  0
  3 13  1  0
 13 14  2  0
 14 15  1  0
 15 16  2  0
 16 17  1  0
 17 19  1  0
 19 20  2  0
 20 21  1  0
 21 22  2  0
 22 23  1  0
 17 18  2  0
  2  5  1  0
  5  6  2  0
  6  7  1  0
  7  8  1  0
  7  9  2  0
  9 10  1  0
 10 11  1  0
 10 12  2  0
 18 13  1  0
 12  5  1  0
 23 19  1  0
  3  4  1  0
 23 24  1  0
M  END
> <minimizedAffinity>
-7.68359

> <CNNscore>
0.4771079421

> <CNNaffinity>
4.6407837868

> <CNN_VS>
2.2141547203

> <CNNaffinity_variance>
0.6848341823

$$$$



 24 26  0  0  0  0  0  0  0  0999 V2000
   -9.5204   55.8972    9.2012 O   0  0  0  0  0  0  0  0  0  0  0  0
   -9.9649   56.8277    8.5411 C   0  0  0  0  0  0  0  0  0  0  0  0
   -9.6811   57.1212    7.2199 N   0  0  0  0  0  0  0  0  0  0  0  0
  -10.1730   57.8764    6.8237 H   0  0  0  0  0  0  0  0  0  0  0  0
  -10.9482   57.7365    9.1917 C   0  0  0  0  0  0  0  0  0  0  0  0
  -10.4859   58.6242   10.1691 C   0  0  0  0  0  0  0  0  0  0  0  0
  -11.3816   59.4881   10.7872 C   0  0  0  0  0  0  0  0  0  0  0  0
  -10.9396   60.3299   11.7302 F   0  0  0  0  0  0  0  0  0  0  0  0
  -12.7286   59.4949   10.4461 C   0  0  0  0  0  0  0  0  0  0  0  0
  -13.1810   58.6236    9.4592 C   0  0  0  0  0  0  0  0  0  0  0  0
  -15.0061   58.6349    8.9667 Br  0  0  0  0  0  0  0  0  0  0  0  0
  -12.3009   57.7449    8.8238 C   0  0  0  0  0  0  0  0  0  0  0  0
   -8.7639   56.4578    6.3764 C   0  0  0  0  0  0  0  0  0  0  0  0
   -8.6993   56.6401    4.9966 C   0  0  0  0  0  0  0  0  0  0  0  0
   -7.7630   55.9378    4.2346 C   0  0  0  0  0  0  0  0  0  0  0  0
   -6.8818   55.0427    4.8445 C   0  0  0  0  0  0  0  0  0  0  0  0
   -6.9279   54.8383    6.2289 C   0  0  0  0  0  0  0  0  0  0  0  0
   -7.8779   55.5539    6.9797 C   0  0  0  0  0  0  0  0  0  0  0  0
   -6.0315   53.9124    6.9183 C   0  0  0  0  0  0  0  0  0  0  0  0
   -6.2419   53.3081    8.0746 N   0  0  0  0  0  0  0  0  0  0  0  0
   -5.1333   52.5384    8.3268 N   0  0  0  0  0  0  0  0  0  0  0  0
   -4.2449   52.6563    7.3529 N   0  0  0  0  0  0  0  0  0  0  0  0
   -4.7990   53.5071    6.4805 N   0  0  0  0  0  0  0  0  0  0  0  0
   -4.3784   53.8009    5.6403 H   0  0  0  0  0  0  0  0  0  0  0  0
  1  2  2  0
  2  3  1  0
  3 13  1  0
 13 14  2  0
 14 15  1  0
 15 16  2  0
 16 17  1  0
 17 19  1  0
 19 20  2  0
 20 21  1  0
 21 22  2  0
 22 23  1  0
 17 18  2  0
  2  5  1  0
  5  6  2  0
  6  7  1  0
  7  8  1  0
  7  9  2  0
  9 10  1  0
 10 11  1  0
 10 12  2  0
 18 13  1  0
 12  5  1  0
 23 19  1  0
  3  4  1  0
 23 24  1  0
M  END
> <minimizedAffinity>
-6.11520

> <CNNscore>
0.3396176994

> <CNNaffinity>
4.6567511559

> <CNN_VS>
1.5815150738

> <CNNaffinity_variance>
0.1289279312

$$$$



 24 26  0  0  0  0  0  0  0  0999 V2000
   -8.1087   51.5241    9.0478 O   0  0  0  0  0  0  0  0  0  0  0  0
   -8.1919   50.4083    9.5453 C   0  0  0  0  0  0  0  0  0  0  0  0
   -7.4826   49.9256   10.6298 N   0  0  0  0  0  0  0  0  0  0  0  0
   -7.7158   49.0199   10.9374 H   0  0  0  0  0  0  0  0  0  0  0  0
   -9.1814   49.4590    8.9658 C   0  0  0  0  0  0  0  0  0  0  0  0
  -10.1098   48.8615    9.8250 C   0  0  0  0  0  0  0  0  0  0  0  0
  -11.0488   47.9769    9.3088 C   0  0  0  0  0  0  0  0  0  0  0  0
  -11.9300   47.3974   10.1340 F   0  0  0  0  0  0  0  0  0  0  0  0
  -11.0906   47.6807    7.9519 C   0  0  0  0  0  0  0  0  0  0  0  0
  -10.1775   48.2924    7.0975 C   0  0  0  0  0  0  0  0  0  0  0  0
  -10.2343   47.9184    5.2453 Br  0  0  0  0  0  0  0  0  0  0  0  0
   -9.2233   49.1843    7.5918 C   0  0  0  0  0  0  0  0  0  0  0  0
   -6.4612   50.5878   11.3447 C   0  0  0  0  0  0  0  0  0  0  0  0
   -5.1673   50.0936   11.4955 C   0  0  0  0  0  0  0  0  0  0  0  0
   -4.2176   50.8120   12.2253 C   0  0  0  0  0  0  0  0  0  0  0  0
   -4.5526   52.0326   12.8147 C   0  0  0  0  0  0  0  0  0  0  0  0
   -5.8467   52.5503   12.6814 C   0  0  0  0  0  0  0  0  0  0  0  0
   -6.7897   51.8124   11.9434 C   0  0  0  0  0  0  0  0  0  0  0  0
   -6.2518   53.8211   13.2788 C   0  0  0  0  0  0  0  0  0  0  0  0
   -7.4202   54.4263   13.1544 N   0  0  0  0  0  0  0  0  0  0  0  0
   -7.3452   55.5861   13.8853 N   0  0  0  0  0  0  0  0  0  0  0  0
   -6.1572   55.7092   14.4555 N   0  0  0  0  0  0  0  0  0  0  0  0
   -5.4789   54.6178   14.0805 N   0  0  0  0  0  0  0  0  0  0  0  0
   -4.5522   54.4159   14.3445 H   0  0  0  0  0  0  0  0  0  0  0  0
  1  2  2  0
  2  3  1  0
  3 13  1  0
 13 14  2  0
 14 15  1  0
 15 16  2  0
 16 17  1  0
 17 19  1  0
 19 20  2  0
 20 21  1  0
 21 22  2  0
 22 23  1  0
 17 18  2  0
  2  5  1  0
  5  6  2  0
  6  7  1  0
  7  8  1  0
  7  9  2  0
  9 10  1  0
 10 11  1  0
 10 12  2  0
 18 13  1  0
 12  5  1  0
 23 19  1  0
  3  4  1  0
 23 24  1  0
M  END
> <minimizedAffinity>
-6.04588

> <CNNscore>
0.3307953477

> <CNNaffinity>
5.0123686790

> <CNN_VS>
1.6580682993

> <CNNaffinity_variance>
0.1647173166

$$$$



 24 26  0  0  0  0  0  0  0  0999 V2000
   -9.9661   59.2564    9.6470 O   0  0  0  0  0  0  0  0  0  0  0  0
  -10.6548   58.6649   10.4687 C   0  0  0  0  0  0  0  0  0  0  0  0
  -10.3464   57.4826   11.1162 N   0  0  0  0  0  0  0  0  0  0  0  0
  -10.9903   57.1738   11.7940 H   0  0  0  0  0  0  0  0  0  0  0  0
  -11.9527   59.2792   10.8616 C   0  0  0  0  0  0  0  0  0  0  0  0
  -12.4649   58.9931   12.1316 C   0  0  0  0  0  0  0  0  0  0  0  0
  -13.6711   59.5589   12.5260 C   0  0  0  0  0  0  0  0  0  0  0  0
  -14.1655   59.2758   13.7378 F   0  0  0  0  0  0  0  0  0  0  0  0
  -14.3754   60.4130   11.6862 C   0  0  0  0  0  0  0  0  0  0  0  0
  -13.8525   60.7104   10.4308 C   0  0  0  0  0  0  0  0  0  0  0  0
  -14.7862   61.8881    9.2839 Br  0  0  0  0  0  0  0  0  0  0  0  0
  -12.6426   60.1538   10.0106 C   0  0  0  0  0  0  0  0  0  0  0  0
   -9.2106   56.6694   10.9129 C   0  0  0  0  0  0  0  0  0  0  0  0
   -8.5014   56.0481   11.9388 C   0  0  0  0  0  0  0  0  0  0  0  0
   -7.3829   55.2634   11.6494 C   0  0  0  0  0  0  0  0  0  0  0  0
   -6.9596   55.0932   10.3298 C   0  0  0  0  0  0  0  0  0  0  0  0
   -7.6522   55.7092    9.2804 C   0  0  0  0  0  0  0  0  0  0  0  0
   -8.7758   56.4962    9.5912 C   0  0  0  0  0  0  0  0  0  0  0  0
   -7.2519   55.5668    7.8820 C   0  0  0  0  0  0  0  0  0  0  0  0
   -6.1281   55.0455    7.4215 N   0  0  0  0  0  0  0  0  0  0  0  0
   -6.1876   55.1228    6.0520 N   0  0  0  0  0  0  0  0  0  0  0  0
   -7.3216   55.6809    5.6592 N   0  0  0  0  0  0  0  0  0  0  0  0
   -7.9812   55.9571    6.7908 N   0  0  0  0  0  0  0  0  0  0  0  0
   -8.8682   56.3822    6.8327 H   0  0  0  0  0  0  0  0  0  0  0  0
  1  2  2  0
  2  3  1  0
  3 13  1  0
 13 14  2  0
 14 15  1  0
 15 16  2  0
 16 17  1  0
 17 19  1  0
 19 20  2  0
 20 21  1  0
 21 22  2  0
 22 23  1  0
 17 18  2  0
  2  5  1  0
  5  6  2  0
  6  7  1  0
  7  8  1  0
  7  9  2  0
  9 10  1  0
 10 11  1  0
 10 12  2  0
 18 13  1  0
 12  5  1  0
 23 19  1  0
  3  4  1  0
 23 24  1  0
M  END
> <minimizedAffinity>
-6.42090

> <CNNscore>
0.2912700176

> <CNNaffinity>
4.6209635735

> <CNN_VS>
1.3459481001

> <CNNaffinity_variance>
0.1741561443

$$$$



 24 26  0  0  0  0  0  0  0  0999 V2000
   -2.6930   48.2131    9.0100 O   0  0  0  0  0  0  0  0  0  0  0  0
   -2.5090   47.9195   10.1844 C   0  0  0  0  0  0  0  0  0  0  0  0
   -3.2764   48.3040   11.2686 N   0  0  0  0  0  0  0  0  0  0  0  0
   -3.0198   47.9286   12.1418 H   0  0  0  0  0  0  0  0  0  0  0  0
   -1.3657   47.0224   10.5075 C   0  0  0  0  0  0  0  0  0  0  0  0
   -0.1548   47.2223    9.8361 C   0  0  0  0  0  0  0  0  0  0  0  0
    0.9301   46.4033   10.1239 C   0  0  0  0  0  0  0  0  0  0  0  0
    2.0854   46.5888    9.4727 F   0  0  0  0  0  0  0  0  0  0  0  0
    0.8393   45.3938   11.0744 C   0  0  0  0  0  0  0  0  0  0  0  0
   -0.3617   45.2109   11.7542 C   0  0  0  0  0  0  0  0  0  0  0  0
   -0.4966   43.8570   13.0667 Br  0  0  0  0  0  0  0  0  0  0  0  0
   -1.4669   46.0202   11.4825 C   0  0  0  0  0  0  0  0  0  0  0  0
   -4.3871   49.1752   11.2618 C   0  0  0  0  0  0  0  0  0  0  0  0
   -5.5433   48.9604   10.5145 C   0  0  0  0  0  0  0  0  0  0  0  0
   -6.5951   49.8781   10.5615 C   0  0  0  0  0  0  0  0  0  0  0  0
   -6.5011   51.0229   11.3553 C   0  0  0  0  0  0  0  0  0  0  0  0
   -5.3490   51.2645   12.1134 C   0  0  0  0  0  0  0  0  0  0  0  0
   -4.2999   50.3296   12.0529 C   0  0  0  0  0  0  0  0  0  0  0  0
   -5.1966   52.4467   12.9591 C   0  0  0  0  0  0  0  0  0  0  0  0
   -5.4578   53.7009   12.6343 N   0  0  0  0  0  0  0  0  0  0  0  0
   -5.1659   54.4647   13.7371 N   0  0  0  0  0  0  0  0  0  0  0  0
   -4.7299   53.7096   14.7328 N   0  0  0  0  0  0  0  0  0  0  0  0
   -4.7474   52.4602   14.2526 N   0  0  0  0  0  0  0  0  0  0  0  0
   -4.4750   51.6613   14.7594 H   0  0  0  0  0  0  0  0  0  0  0  0
  1  2  2  0
  2  3  1  0
  3 13  1  0
 13 14  2  0
 14 15  1  0
 15 16  2  0
 16 17  1  0
 17 19  1  0
 19 20  2  0
 20 21  1  0
 21 22  2  0
 22 23  1  0
 17 18  2  0
  2  5  1  0
  5  6  2  0
  6  7  1  0
  7  8  1  0
  7  9  2  0
  9 10  1  0
 10 11  1  0
 10 12  2  0
 18 13  1  0
 12  5  1  0
 23 19  1  0
  3  4  1  0
 23 24  1  0
M  END
> <minimizedAffinity>
-6.78410

> <CNNscore>
0.2905962467

> <CNNaffinity>
4.4668722153

> <CNN_VS>
1.2980562449

> <CNNaffinity_variance>
0.5454694629

$$$$



 24 26  0  0  0  0  0  0  0  0999 V2000
   -0.8865   48.2037    9.9769 O   0  0  0  0  0  0  0  0  0  0  0  0
   -1.1425   48.0073   11.1581 C   0  0  0  0  0  0  0  0  0  0  0  0
   -1.6845   48.9108   12.0537 N   0  0  0  0  0  0  0  0  0  0  0  0
   -1.8813   48.5687   12.9557 H   0  0  0  0  0  0  0  0  0  0  0  0
   -0.8890   46.6478   11.7093 C   0  0  0  0  0  0  0  0  0  0  0  0
    0.1139   45.8696   11.1214 C   0  0  0  0  0  0  0  0  0  0  0  0
    0.3755   44.5997   11.6210 C   0  0  0  0  0  0  0  0  0  0  0  0
    1.3285   43.8518   11.0505 F   0  0  0  0  0  0  0  0  0  0  0  0
   -0.3339   44.0899   12.7015 C   0  0  0  0  0  0  0  0  0  0  0  0
   -1.3178   44.8752   13.2959 C   0  0  0  0  0  0  0  0  0  0  0  0
   -2.2775   44.2064   14.7811 Br  0  0  0  0  0  0  0  0  0  0  0  0
   -1.6003   46.1543   12.8119 C   0  0  0  0  0  0  0  0  0  0  0  0
   -1.9867   50.2694   11.8178 C   0  0  0  0  0  0  0  0  0  0  0  0
   -1.3631   51.0508   10.8474 C   0  0  0  0  0  0  0  0  0  0  0  0
   -1.7193   52.3913   10.6841 C   0  0  0  0  0  0  0  0  0  0  0  0
   -2.7024   52.9663   11.4919 C   0  0  0  0  0  0  0  0  0  0  0  0
   -3.3422   52.2042   12.4770 C   0  0  0  0  0  0  0  0  0  0  0  0
   -2.9698   50.8562   12.6272 C   0  0  0  0  0  0  0  0  0  0  0  0
   -4.3757   52.7554   13.3511 C   0  0  0  0  0  0  0  0  0  0  0  0
   -4.2378   53.7238   14.2398 N   0  0  0  0  0  0  0  0  0  0  0  0
   -5.4677   53.9045   14.8227 N   0  0  0  0  0  0  0  0  0  0  0  0
   -6.3589   53.0687   14.3141 N   0  0  0  0  0  0  0  0  0  0  0  0
   -5.6844   52.3560   13.4036 N   0  0  0  0  0  0  0  0  0  0  0  0
   -6.0753   51.6432   12.8483 H   0  0  0  0  0  0  0  0  0  0  0  0
  1  2  2  0
  2  3  1  0
  3 13  1  0
 13 14  2  0
 14 15  1  0
 15 16  2  0
 16 17  1  0
 17 19  1  0
 19 20  2  0
 20 21  1  0
 21 22  2  0
 22 23  1  0
 17 18  2  0
  2  5  1  0
  5  6  2  0
  6  7  1  0
  7  8  1  0
  7  9  2  0
  9 10  1  0
 10 11  1  0
 10 12  2  0
 18 13  1  0
 12  5  1  0
 23 19  1  0
  3  4  1  0
 23 24  1  0
M  END
> <minimizedAffinity>
-6.74174

> <CNNscore>
0.2772527039

> <CNNaffinity>
4.8854174614

> <CNN_VS>
1.3544951677

> <CNNaffinity_variance>
0.2001766413

$$$$
