


 47 52  0  0  0  0  0  0  0  0999 V2000
   28.2184    7.7424   39.9104 C   0  0  0  0  0  0  0  0  0  0  0  0
   27.2388    8.4927   40.0080 O   0  0  0  0  0  0  0  0  0  0  0  0
   28.1932    6.5668   39.1131 N   0  0  0  0  0  0  0  0  0  0  0  0
   28.9542    5.3884   39.4397 C   0  0  0  0  0  0  0  0  0  0  0  0
   29.3023    5.1532   40.7887 C   0  0  0  0  0  0  0  0  0  0  0  0
   30.1191    4.0859   41.1811 C   0  0  0  0  0  0  0  0  0  0  0  0
   30.6043    3.1986   40.2338 C   0  0  0  0  0  0  0  0  0  0  0  0
   30.2220    3.3713   38.9127 C   0  0  0  0  0  0  0  0  0  0  0  0
   30.6347    2.4760   37.9514 O   0  0  0  0  0  0  0  0  0  0  0  0
   29.3788    4.4324   38.4984 C   0  0  0  0  0  0  0  0  0  0  0  0
   28.9891    4.4163   37.1283 N   0  0  0  0  0  0  0  0  0  0  0  0
   27.6379    4.4248   36.8195 C   0  0  0  0  0  0  0  0  0  0  0  0
   26.8395    5.4226   37.2455 C   0  0  0  0  0  0  0  0  0  0  0  0
   27.2944    6.6798   37.9466 C   0  0  0  0  0  0  0  0  0  0  0  0
   25.1235    5.3692   36.9589 S   0  0  0  0  0  0  0  0  0  0  0  0
   24.7695    6.4065   36.0058 O   0  0  0  0  0  0  0  0  0  0  0  0
   24.4423    5.3220   38.2403 O   0  0  0  0  0  0  0  0  0  0  0  0
   24.7967    3.8170   36.1734 C   0  0  0  0  0  0  0  0  0  0  0  0
   25.8871    3.3762   35.2005 C   0  0  0  0  0  0  0  0  0  0  0  0
   26.0539    4.3490   34.0179 C   0  0  0  0  0  0  0  0  0  0  0  0
   25.4966    2.0002   34.6218 C   0  0  0  0  0  0  0  0  0  0  0  0
   27.2010    3.2320   35.9851 C   0  0  0  0  0  0  0  0  0  0  0  0
   31.1928    1.7608   38.1860 H   0  0  0  0  0  0  0  0  0  0  0  0
   29.6666    4.3994   36.4143 H   0  0  0  0  0  0  0  0  0  0  0  0
   32.9949    8.7055   39.5587 C   0  0  0  0  0  0  0  0  0  0  0  0
   31.7544    8.6953   40.3969 C   0  0  0  0  0  0  0  0  0  0  0  0
   31.7789    9.1883   41.6975 C   0  0  0  0  0  0  0  0  0  0  0  0
   30.6045    9.1749   42.4426 C   0  0  0  0  0  0  0  0  0  0  0  0
   29.4406    8.6776   41.8713 C   0  0  0  0  0  0  0  0  0  0  0  0
   29.4911    8.2104   40.5620 C   0  0  0  0  0  0  0  0  0  0  0  0
   30.6270    8.2266   39.8178 N   0  0  0  0  0  0  0  0  0  0  0  0
   27.7449    7.7673   36.9557 C   0  0  0  0  0  0  0  0  0  0  0  0
   27.8519    9.1001   37.3999 C   0  0  0  0  0  0  0  0  0  0  0  0
   28.2421   10.1303   36.5361 C   0  0  0  0  0  0  0  0  0  0  0  0
   28.5328    9.8497   35.2024 C   0  0  0  0  0  0  0  0  0  0  0  0
   28.4422    8.5338   34.7510 C   0  0  0  0  0  0  0  0  0  0  0  0
   28.0596    7.5101   35.6185 C   0  0  0  0  0  0  0  0  0  0  0  0
   28.0159    6.2692   35.1205 F   0  0  0  0  0  0  0  0  0  0  0  0
   28.9089   10.7559   34.2511 O   0  0  0  0  0  0  0  0  0  0  0  0
   27.9021   11.6453   33.7687 C   0  0  0  0  0  0  0  0  0  0  0  0
   27.5739   11.2388   32.3523 C   0  0  0  0  0  0  0  0  0  0  0  0
   26.3229   11.5386   31.7935 C   0  0  0  0  0  0  0  0  0  0  0  0
   26.0147   11.1348   30.4932 C   0  0  0  0  0  0  0  0  0  0  0  0
   26.9541   10.4250   29.7481 C   0  0  0  0  0  0  0  0  0  0  0  0
   26.5694    9.9248   28.1492 Cl  0  0  0  0  0  0  0  0  0  0  0  0
   28.1985   10.1132   30.2916 C   0  0  0  0  0  0  0  0  0  0  0  0
   28.5061   10.5175   31.5918 C   0  0  0  0  0  0  0  0  0  0  0  0
 25 26  1  0
 26 27  2  0
 27 28  1  0
 28 29  2  0
 29 30  1  0
 30  1  1  0
  1  2  2  0
  1  3  1  0
  3  4  1  0
  4  5  2  0
  5  6  1  0
  6  7  2  0
  7  8  1  0
  8  9  1  0
  8 10  2  0
 10 11  1  0
 11 12  1  0
 12 13  2  0
 13 14  1  0
 14 32  1  0
 32 33  2  0
 33 34  1  0
 34 35  2  0
 35 39  1  0
 39 40  1  0
 40 41  1  0
 41 42  2  0
 42 43  1  0
 43 44  2  0
 44 45  1  0
 44 46  1  0
 46 47  2  0
 35 36  1  0
 36 37  2  0
 37 38  1  0
 13 15  1  0
 15 16  2  0
 15 17  2  0
 15 18  1  0
 18 19  1  0
 19 20  1  0
 19 21  1  0
 19 22  1  0
 30 31  2  0
 31 26  1  0
 14  3  1  0
 37 32  1  0
 10  4  1  0
 22 12  1  0
 47 41  1  0
  9 23  1  0
 11 24  1  0
M  END
> <minimizedAffinity>
-11.42071

> <CNNscore>
0.9353605509

> <CNNaffinity>
8.3223943710

> <CNN_VS>
7.7844395638

> <CNNaffinity_variance>
0.0450640507

$$$$



 47 52  0  0  0  0  0  0  0  0999 V2000
   30.0024    6.5164   39.2791 C   0  0  0  0  0  0  0  0  0  0  0  0
   29.2858    7.3600   39.8330 O   0  0  0  0  0  0  0  0  0  0  0  0
   29.4641    5.4911   38.4561 N   0  0  0  0  0  0  0  0  0  0  0  0
   30.0700    4.1899   38.3372 C   0  0  0  0  0  0  0  0  0  0  0  0
   30.8629    3.7066   39.4022 C   0  0  0  0  0  0  0  0  0  0  0  0
   31.5643    2.4971   39.3310 C   0  0  0  0  0  0  0  0  0  0  0  0
   31.4817    1.7131   38.1913 C   0  0  0  0  0  0  0  0  0  0  0  0
   30.6576    2.1351   37.1597 C   0  0  0  0  0  0  0  0  0  0  0  0
   30.5026    1.3546   36.0360 O   0  0  0  0  0  0  0  0  0  0  0  0
   29.9227    3.3454   37.2213 C   0  0  0  0  0  0  0  0  0  0  0  0
   29.0395    3.5909   36.1309 N   0  0  0  0  0  0  0  0  0  0  0  0
   27.6983    3.8175   36.3974 C   0  0  0  0  0  0  0  0  0  0  0  0
   27.3162    4.8299   37.1995 C   0  0  0  0  0  0  0  0  0  0  0  0
   28.2211    5.8959   37.7687 C   0  0  0  0  0  0  0  0  0  0  0  0
   25.6421    5.0383   37.6282 S   0  0  0  0  0  0  0  0  0  0  0  0
   25.1386    6.2470   36.9993 O   0  0  0  0  0  0  0  0  0  0  0  0
   25.5100    4.8796   39.0654 O   0  0  0  0  0  0  0  0  0  0  0  0
   24.7684    3.6803   36.9033 C   0  0  0  0  0  0  0  0  0  0  0  0
   25.3034    3.2615   35.5365 C   0  0  0  0  0  0  0  0  0  0  0  0
   25.1719    4.3768   34.4822 C   0  0  0  0  0  0  0  0  0  0  0  0
   24.4828    2.0520   35.0418 C   0  0  0  0  0  0  0  0  0  0  0  0
   26.7698    2.8330   35.7056 C   0  0  0  0  0  0  0  0  0  0  0  0
   30.9715    0.5472   35.9581 H   0  0  0  0  0  0  0  0  0  0  0  0
   29.3754    3.5994   35.2055 H   0  0  0  0  0  0  0  0  0  0  0  0
   34.0358    6.3740   42.0318 C   0  0  0  0  0  0  0  0  0  0  0  0
   33.4136    6.6235   40.6931 C   0  0  0  0  0  0  0  0  0  0  0  0
   34.2077    6.9364   39.5946 C   0  0  0  0  0  0  0  0  0  0  0  0
   33.5967    7.1492   38.3634 C   0  0  0  0  0  0  0  0  0  0  0  0
   32.2162    7.0391   38.2597 C   0  0  0  0  0  0  0  0  0  0  0  0
   31.4889    6.7135   39.3999 C   0  0  0  0  0  0  0  0  0  0  0  0
   32.0715    6.4921   40.6065 N   0  0  0  0  0  0  0  0  0  0  0  0
   28.4407    7.0580   36.7846 C   0  0  0  0  0  0  0  0  0  0  0  0
   27.7425    8.2660   36.9808 C   0  0  0  0  0  0  0  0  0  0  0  0
   27.8936    9.3489   36.1067 C   0  0  0  0  0  0  0  0  0  0  0  0
   28.7481    9.2466   35.0106 C   0  0  0  0  0  0  0  0  0  0  0  0
   29.4542    8.0615   34.8097 C   0  0  0  0  0  0  0  0  0  0  0  0
   29.3049    6.9880   35.6884 C   0  0  0  0  0  0  0  0  0  0  0  0
   30.0309    5.8910   35.4448 F   0  0  0  0  0  0  0  0  0  0  0  0
   28.9778   10.2149   34.0739 O   0  0  0  0  0  0  0  0  0  0  0  0
   27.9323   11.1603   33.8487 C   0  0  0  0  0  0  0  0  0  0  0  0
   27.4571   10.9858   32.4265 C   0  0  0  0  0  0  0  0  0  0  0  0
   28.1559   10.1586   31.5350 C   0  0  0  0  0  0  0  0  0  0  0  0
   27.7281   10.0239   30.2130 C   0  0  0  0  0  0  0  0  0  0  0  0
   26.6030   10.7196   29.7755 C   0  0  0  0  0  0  0  0  0  0  0  0
   26.0821   10.5553   28.1457 Cl  0  0  0  0  0  0  0  0  0  0  0  0
   25.9022   11.5507   30.6469 C   0  0  0  0  0  0  0  0  0  0  0  0
   26.3304   11.6848   31.9687 C   0  0  0  0  0  0  0  0  0  0  0  0
 25 26  1  0
 26 27  2  0
 27 28  1  0
 28 29  2  0
 29 30  1  0
 30  1  1  0
  1  2  2  0
  1  3  1  0
  3  4  1  0
  4  5  2  0
  5  6  1  0
  6  7  2  0
  7  8  1  0
  8  9  1  0
  8 10  2  0
 10 11  1  0
 11 12  1  0
 12 13  2  0
 13 14  1  0
 14 32  1  0
 32 33  2  0
 33 34  1  0
 34 35  2  0
 35 39  1  0
 39 40  1  0
 40 41  1  0
 41 42  2  0
 42 43  1  0
 43 44  2  0
 44 45  1  0
 44 46  1  0
 46 47  2  0
 35 36  1  0
 36 37  2  0
 37 38  1  0
 13 15  1  0
 15 16  2  0
 15 17  2  0
 15 18  1  0
 18 19  1  0
 19 20  1  0
 19 21  1  0
 19 22  1  0
 30 31  2  0
 31 26  1  0
 14  3  1  0
 37 32  1  0
 10  4  1  0
 22 12  1  0
 47 41  1  0
  9 23  1  0
 11 24  1  0
M  END
> <minimizedAffinity>
-9.71598

> <CNNscore>
0.7527564764

> <CNNaffinity>
7.9077124596

> <CNN_VS>
5.9525818825

> <CNNaffinity_variance>
0.0206544250

$$$$



 47 52  0  0  0  0  0  0  0  0999 V2000
   28.2886    7.4245   40.0168 C   0  0  0  0  0  0  0  0  0  0  0  0
   27.1609    7.9222   39.9037 O   0  0  0  0  0  0  0  0  0  0  0  0
   28.5891    6.1190   39.5441 N   0  0  0  0  0  0  0  0  0  0  0  0
   29.5681    5.2698   40.1724 C   0  0  0  0  0  0  0  0  0  0  0  0
   29.8562    5.4586   41.5427 C   0  0  0  0  0  0  0  0  0  0  0  0
   30.8594    4.7432   42.2075 C   0  0  0  0  0  0  0  0  0  0  0  0
   31.6025    3.7932   41.5252 C   0  0  0  0  0  0  0  0  0  0  0  0
   31.2932    3.5442   40.1971 C   0  0  0  0  0  0  0  0  0  0  0  0
   31.9686    2.5661   39.5021 O   0  0  0  0  0  0  0  0  0  0  0  0
   30.2673    4.2423   39.5123 C   0  0  0  0  0  0  0  0  0  0  0  0
   29.9970    3.8021   38.1848 N   0  0  0  0  0  0  0  0  0  0  0  0
   28.7060    3.4153   37.8607 C   0  0  0  0  0  0  0  0  0  0  0  0
   27.6737    4.2685   38.0053 C   0  0  0  0  0  0  0  0  0  0  0  0
   27.7797    5.7292   38.3717 C   0  0  0  0  0  0  0  0  0  0  0  0
   26.0406    3.7425   37.7122 S   0  0  0  0  0  0  0  0  0  0  0  0
   25.5365    4.4030   36.5208 O   0  0  0  0  0  0  0  0  0  0  0  0
   25.2917    3.8482   38.9516 O   0  0  0  0  0  0  0  0  0  0  0  0
   26.1319    2.0142   37.3412 C   0  0  0  0  0  0  0  0  0  0  0  0
   27.3645    1.6212   36.5312 C   0  0  0  0  0  0  0  0  0  0  0  0
   27.3983    2.2885   35.1433 C   0  0  0  0  0  0  0  0  0  0  0  0
   27.3385    0.0937   36.3144 C   0  0  0  0  0  0  0  0  0  0  0  0
   28.6133    1.9871   37.3493 C   0  0  0  0  0  0  0  0  0  0  0  0
   32.6536    2.0824   39.9203 H   0  0  0  0  0  0  0  0  0  0  0  0
   30.7135    3.7731   37.5103 H   0  0  0  0  0  0  0  0  0  0  0  0
   30.1292   10.0165   43.7262 C   0  0  0  0  0  0  0  0  0  0  0  0
   30.2651    9.5368   42.3145 C   0  0  0  0  0  0  0  0  0  0  0  0
   31.3990    9.8476   41.5709 C   0  0  0  0  0  0  0  0  0  0  0  0
   31.4971    9.3741   40.2668 C   0  0  0  0  0  0  0  0  0  0  0  0
   30.4686    8.6018   39.7431 C   0  0  0  0  0  0  0  0  0  0  0  0
   29.3700    8.3242   40.5500 C   0  0  0  0  0  0  0  0  0  0  0  0
   29.2643    8.7699   41.8285 N   0  0  0  0  0  0  0  0  0  0  0  0
   28.0486    6.6181   37.1450 C   0  0  0  0  0  0  0  0  0  0  0  0
   29.3414    6.6443   36.5855 C   0  0  0  0  0  0  0  0  0  0  0  0
   29.6439    7.4471   35.4792 C   0  0  0  0  0  0  0  0  0  0  0  0
   28.6566    8.2470   34.9071 C   0  0  0  0  0  0  0  0  0  0  0  0
   27.3697    8.2231   35.4428 C   0  0  0  0  0  0  0  0  0  0  0  0
   27.0725    7.4155   36.5411 C   0  0  0  0  0  0  0  0  0  0  0  0
   25.8113    7.4275   36.9872 F   0  0  0  0  0  0  0  0  0  0  0  0
   28.8162    9.0857   33.8399 O   0  0  0  0  0  0  0  0  0  0  0  0
   28.0425   10.2852   33.8365 C   0  0  0  0  0  0  0  0  0  0  0  0
   27.4504   10.4431   32.4569 C   0  0  0  0  0  0  0  0  0  0  0  0
   27.6762    9.4760   31.4664 C   0  0  0  0  0  0  0  0  0  0  0  0
   27.1501    9.6418   30.1840 C   0  0  0  0  0  0  0  0  0  0  0  0
   26.4004   10.7776   29.8851 C   0  0  0  0  0  0  0  0  0  0  0  0
   25.7584   10.9810   28.3036 Cl  0  0  0  0  0  0  0  0  0  0  0  0
   26.1732   11.7508   30.8560 C   0  0  0  0  0  0  0  0  0  0  0  0
   26.6995   11.5842   32.1382 C   0  0  0  0  0  0  0  0  0  0  0  0
 25 26  1  0
 26 27  2  0
 27 28  1  0
 28 29  2  0
 29 30  1  0
 30  1  1  0
  1  2  2  0
  1  3  1  0
  3  4  1  0
  4  5  2  0
  5  6  1  0
  6  7  2  0
  7  8  1  0
  8  9  1  0
  8 10  2  0
 10 11  1  0
 11 12  1  0
 12 13  2  0
 13 14  1  0
 14 32  1  0
 32 33  2  0
 33 34  1  0
 34 35  2  0
 35 39  1  0
 39 40  1  0
 40 41  1  0
 41 42  2  0
 42 43  1  0
 43 44  2  0
 44 45  1  0
 44 46  1  0
 46 47  2  0
 35 36  1  0
 36 37  2  0
 37 38  1  0
 13 15  1  0
 15 16  2  0
 15 17  2  0
 15 18  1  0
 18 19  1  0
 19 20  1  0
 19 21  1  0
 19 22  1  0
 30 31  2  0
 31 26  1  0
 14  3  1  0
 37 32  1  0
 10  4  1  0
 22 12  1  0
 47 41  1  0
  9 23  1  0
 11 24  1  0
M  END
> <minimizedAffinity>
-10.05344

> <CNNscore>
0.5815405846

> <CNNaffinity>
7.6172256470

> <CNN_VS>
4.4297256470

> <CNNaffinity_variance>
0.0243272725

$$$$



 47 52  0  0  0  0  0  0  0  0999 V2000
   25.5880    5.1275   37.3122 C   0  0  0  0  0  0  0  0  0  0  0  0
   24.7675    5.5574   38.1332 O   0  0  0  0  0  0  0  0  0  0  0  0
   26.9355    5.5765   37.2847 N   0  0  0  0  0  0  0  0  0  0  0  0
   27.7067    5.6505   36.0706 C   0  0  0  0  0  0  0  0  0  0  0  0
   27.0294    5.8091   34.8407 C   0  0  0  0  0  0  0  0  0  0  0  0
   27.6926    5.7948   33.6078 C   0  0  0  0  0  0  0  0  0  0  0  0
   29.0689    5.6396   33.5620 C   0  0  0  0  0  0  0  0  0  0  0  0
   29.7618    5.5485   34.7590 C   0  0  0  0  0  0  0  0  0  0  0  0
   31.1354    5.4535   34.7566 O   0  0  0  0  0  0  0  0  0  0  0  0
   29.1113    5.5825   36.0177 C   0  0  0  0  0  0  0  0  0  0  0  0
   29.9656    5.5849   37.1576 N   0  0  0  0  0  0  0  0  0  0  0  0
   29.8428    6.6117   38.0804 C   0  0  0  0  0  0  0  0  0  0  0  0
   28.6715    6.8413   38.7047 C   0  0  0  0  0  0  0  0  0  0  0  0
   27.4381    5.9754   38.6150 C   0  0  0  0  0  0  0  0  0  0  0  0
   28.4874    8.2042   39.7717 S   0  0  0  0  0  0  0  0  0  0  0  0
   28.3411    7.7231   41.1344 O   0  0  0  0  0  0  0  0  0  0  0  0
   27.4771    9.0894   39.2204 O   0  0  0  0  0  0  0  0  0  0  0  0
   30.0125    9.1002   39.7046 C   0  0  0  0  0  0  0  0  0  0  0  0
   31.2464    8.2098   39.5844 C   0  0  0  0  0  0  0  0  0  0  0  0
   31.4281    7.2825   40.8009 C   0  0  0  0  0  0  0  0  0  0  0  0
   32.4934    9.1145   39.4964 C   0  0  0  0  0  0  0  0  0  0  0  0
   31.1276    7.3975   38.2849 C   0  0  0  0  0  0  0  0  0  0  0  0
   31.6019    5.4284   33.9444 H   0  0  0  0  0  0  0  0  0  0  0  0
   30.6307    4.8707   37.2874 H   0  0  0  0  0  0  0  0  0  0  0  0
   24.2153    0.4599   36.8694 C   0  0  0  0  0  0  0  0  0  0  0  0
   24.4513    1.7871   36.2179 C   0  0  0  0  0  0  0  0  0  0  0  0
   24.1653    1.9704   34.8689 C   0  0  0  0  0  0  0  0  0  0  0  0
   24.3848    3.2205   34.3000 C   0  0  0  0  0  0  0  0  0  0  0  0
   24.8761    4.2518   35.0897 C   0  0  0  0  0  0  0  0  0  0  0  0
   25.1296    3.9958   36.4333 C   0  0  0  0  0  0  0  0  0  0  0  0
   24.9103    2.7841   37.0061 N   0  0  0  0  0  0  0  0  0  0  0  0
   27.4786    4.8015   39.6087 C   0  0  0  0  0  0  0  0  0  0  0  0
   26.7023    4.8676   40.7826 C   0  0  0  0  0  0  0  0  0  0  0  0
   26.7144    3.8345   41.7272 C   0  0  0  0  0  0  0  0  0  0  0  0
   27.5086    2.7084   41.5192 C   0  0  0  0  0  0  0  0  0  0  0  0
   28.2736    2.6237   40.3568 C   0  0  0  0  0  0  0  0  0  0  0  0
   28.2520    3.6534   39.4155 C   0  0  0  0  0  0  0  0  0  0  0  0
   28.9946    3.4929   38.3144 F   0  0  0  0  0  0  0  0  0  0  0  0
   27.6269    1.6383   42.3609 O   0  0  0  0  0  0  0  0  0  0  0  0
   26.4319    0.9217   42.6707 C   0  0  0  0  0  0  0  0  0  0  0  0
   26.2318    0.9914   44.1653 C   0  0  0  0  0  0  0  0  0  0  0  0
   27.2202    1.5415   44.9947 C   0  0  0  0  0  0  0  0  0  0  0  0
   27.0418    1.5769   46.3788 C   0  0  0  0  0  0  0  0  0  0  0  0
   25.8769    1.0576   46.9398 C   0  0  0  0  0  0  0  0  0  0  0  0
   25.6628    1.0982   48.6449 Cl  0  0  0  0  0  0  0  0  0  0  0  0
   24.8889    0.5013   46.1301 C   0  0  0  0  0  0  0  0  0  0  0  0
   25.0679    0.4665   44.7462 C   0  0  0  0  0  0  0  0  0  0  0  0
 25 26  1  0
 26 27  2  0
 27 28  1  0
 28 29  2  0
 29 30  1  0
 30  1  1  0
  1  2  2  0
  1  3  1  0
  3  4  1  0
  4  5  2  0
  5  6  1  0
  6  7  2  0
  7  8  1  0
  8  9  1  0
  8 10  2  0
 10 11  1  0
 11 12  1  0
 12 13  2  0
 13 14  1  0
 14 32  1  0
 32 33  2  0
 33 34  1  0
 34 35  2  0
 35 39  1  0
 39 40  1  0
 40 41  1  0
 41 42  2  0
 42 43  1  0
 43 44  2  0
 44 45  1  0
 44 46  1  0
 46 47  2  0
 35 36  1  0
 36 37  2  0
 37 38  1  0
 13 15  1  0
 15 16  2  0
 15 17  2  0
 15 18  1  0
 18 19  1  0
 19 20  1  0
 19 21  1  0
 19 22  1  0
 30 31  2  0
 31 26  1  0
 14  3  1  0
 37 32  1  0
 10  4  1  0
 22 12  1  0
 47 41  1  0
  9 23  1  0
 11 24  1  0
M  END
> <minimizedAffinity>
-9.70586

> <CNNscore>
0.5230951309

> <CNNaffinity>
7.0536575317

> <CNN_VS>
3.6897339821

> <CNNaffinity_variance>
0.1734931916

$$$$



 47 52  0  0  0  0  0  0  0  0999 V2000
   28.6239    6.9823   39.5439 C   0  0  0  0  0  0  0  0  0  0  0  0
   27.5323    7.5482   39.4016 O   0  0  0  0  0  0  0  0  0  0  0  0
   28.7868    5.5884   39.3233 N   0  0  0  0  0  0  0  0  0  0  0  0
   29.7431    4.7921   40.0483 C   0  0  0  0  0  0  0  0  0  0  0  0
   30.1485    5.2154   41.3340 C   0  0  0  0  0  0  0  0  0  0  0  0
   31.1419    4.5546   42.0665 C   0  0  0  0  0  0  0  0  0  0  0  0
   31.7558    3.4277   41.5437 C   0  0  0  0  0  0  0  0  0  0  0  0
   31.3280    2.9556   40.3127 C   0  0  0  0  0  0  0  0  0  0  0  0
   31.8716    1.8049   39.7871 O   0  0  0  0  0  0  0  0  0  0  0  0
   30.3092    3.5977   39.5653 C   0  0  0  0  0  0  0  0  0  0  0  0
   29.9054    2.9354   38.3705 N   0  0  0  0  0  0  0  0  0  0  0  0
   28.5677    2.6110   38.2076 C   0  0  0  0  0  0  0  0  0  0  0  0
   27.6178    3.5655   38.2411 C   0  0  0  0  0  0  0  0  0  0  0  0
   27.8628    5.0539   38.3025 C   0  0  0  0  0  0  0  0  0  0  0  0
   25.9316    3.1419   38.1566 S   0  0  0  0  0  0  0  0  0  0  0  0
   25.3900    3.6023   36.8899 O   0  0  0  0  0  0  0  0  0  0  0  0
   25.2898    3.5520   39.3927 O   0  0  0  0  0  0  0  0  0  0  0  0
   25.8619    1.3734   38.1322 C   0  0  0  0  0  0  0  0  0  0  0  0
   26.9954    0.7220   37.3443 C   0  0  0  0  0  0  0  0  0  0  0  0
   26.9741    1.1028   35.8519 C   0  0  0  0  0  0  0  0  0  0  0  0
   26.8362   -0.8099   37.4378 C   0  0  0  0  0  0  0  0  0  0  0  0
   28.3273    1.1252   37.9971 C   0  0  0  0  0  0  0  0  0  0  0  0
   32.5475    1.3515   40.2514 H   0  0  0  0  0  0  0  0  0  0  0  0
   30.5641    2.7122   37.6736 H   0  0  0  0  0  0  0  0  0  0  0  0
   33.2398    8.2356   38.5494 C   0  0  0  0  0  0  0  0  0  0  0  0
   31.9919    8.4862   39.3378 C   0  0  0  0  0  0  0  0  0  0  0  0
   31.9209    9.5572   40.2227 C   0  0  0  0  0  0  0  0  0  0  0  0
   30.7412    9.7674   40.9289 C   0  0  0  0  0  0  0  0  0  0  0  0
   29.6663    8.9108   40.7303 C   0  0  0  0  0  0  0  0  0  0  0  0
   29.8085    7.8671   39.8218 C   0  0  0  0  0  0  0  0  0  0  0  0
   30.9497    7.6550   39.1167 N   0  0  0  0  0  0  0  0  0  0  0  0
   28.1045    5.6611   36.9096 C   0  0  0  0  0  0  0  0  0  0  0  0
   27.0148    6.1963   36.1947 C   0  0  0  0  0  0  0  0  0  0  0  0
   27.1766    6.7464   34.9176 C   0  0  0  0  0  0  0  0  0  0  0  0
   28.4369    6.7715   34.3235 C   0  0  0  0  0  0  0  0  0  0  0  0
   29.5268    6.2558   35.0234 C   0  0  0  0  0  0  0  0  0  0  0  0
   29.3605    5.7152   36.2989 C   0  0  0  0  0  0  0  0  0  0  0  0
   30.4548    5.2591   36.9187 F   0  0  0  0  0  0  0  0  0  0  0  0
   28.7342    7.2621   33.0831 O   0  0  0  0  0  0  0  0  0  0  0  0
   29.4366    8.5035   33.0280 C   0  0  0  0  0  0  0  0  0  0  0  0
   28.4565    9.5637   32.5871 C   0  0  0  0  0  0  0  0  0  0  0  0
   28.2374   10.7059   33.3711 C   0  0  0  0  0  0  0  0  0  0  0  0
   27.3086   11.6690   32.9726 C   0  0  0  0  0  0  0  0  0  0  0  0
   26.5914   11.4915   31.7913 C   0  0  0  0  0  0  0  0  0  0  0  0
   25.4449   12.6768   31.3062 Cl  0  0  0  0  0  0  0  0  0  0  0  0
   26.7924   10.3589   31.0052 C   0  0  0  0  0  0  0  0  0  0  0  0
   27.7214    9.3964   31.4042 C   0  0  0  0  0  0  0  0  0  0  0  0
 25 26  1  0
 26 27  2  0
 27 28  1  0
 28 29  2  0
 29 30  1  0
 30  1  1  0
  1  2  2  0
  1  3  1  0
  3  4  1  0
  4  5  2  0
  5  6  1  0
  6  7  2  0
  7  8  1  0
  8  9  1  0
  8 10  2  0
 10 11  1  0
 11 12  1  0
 12 13  2  0
 13 14  1  0
 14 32  1  0
 32 33  2  0
 33 34  1  0
 34 35  2  0
 35 39  1  0
 39 40  1  0
 40 41  1  0
 41 42  2  0
 42 43  1  0
 43 44  2  0
 44 45  1  0
 44 46  1  0
 46 47  2  0
 35 36  1  0
 36 37  2  0
 37 38  1  0
 13 15  1  0
 15 16  2  0
 15 17  2  0
 15 18  1  0
 18 19  1  0
 19 20  1  0
 19 21  1  0
 19 22  1  0
 30 31  2  0
 31 26  1  0
 14  3  1  0
 37 32  1  0
 10  4  1  0
 22 12  1  0
 47 41  1  0
  9 23  1  0
 11 24  1  0
M  END
> <minimizedAffinity>
-8.96000

> <CNNscore>
0.3580604196

> <CNNaffinity>
7.1324348450

> <CNN_VS>
2.5538425446

> <CNNaffinity_variance>
0.0442908071

$$$$



 47 52  0  0  0  0  0  0  0  0999 V2000
   29.1724    4.0935   36.0244 C   0  0  0  0  0  0  0  0  0  0  0  0
   30.1091    4.3115   35.2451 O   0  0  0  0  0  0  0  0  0  0  0  0
   29.2005    4.5229   37.3783 N   0  0  0  0  0  0  0  0  0  0  0  0
   28.5441    3.8009   38.4376 C   0  0  0  0  0  0  0  0  0  0  0  0
   28.3289    2.4127   38.2858 C   0  0  0  0  0  0  0  0  0  0  0  0
   27.6159    1.6538   39.2217 C   0  0  0  0  0  0  0  0  0  0  0  0
   27.1058    2.2569   40.3603 C   0  0  0  0  0  0  0  0  0  0  0  0
   27.3612    3.6042   40.5628 C   0  0  0  0  0  0  0  0  0  0  0  0
   26.9226    4.2256   41.7105 O   0  0  0  0  0  0  0  0  0  0  0  0
   28.0990    4.3848   39.6381 C   0  0  0  0  0  0  0  0  0  0  0  0
   28.3691    5.7260   40.0352 N   0  0  0  0  0  0  0  0  0  0  0  0
   29.6855    6.1585   40.0703 C   0  0  0  0  0  0  0  0  0  0  0  0
   30.4551    6.1153   38.9657 C   0  0  0  0  0  0  0  0  0  0  0  0
   29.9864    5.7576   37.5759 C   0  0  0  0  0  0  0  0  0  0  0  0
   32.1400    6.5457   39.0414 S   0  0  0  0  0  0  0  0  0  0  0  0
   32.3461    7.7844   38.3114 O   0  0  0  0  0  0  0  0  0  0  0  0
   32.9309    5.3786   38.6942 O   0  0  0  0  0  0  0  0  0  0  0  0
   32.4920    6.8874   40.7421 C   0  0  0  0  0  0  0  0  0  0  0  0
   31.3506    7.5808   41.4811 C   0  0  0  0  0  0  0  0  0  0  0  0
   31.0229    8.9678   40.8966 C   0  0  0  0  0  0  0  0  0  0  0  0
   31.7730    7.7816   42.9516 C   0  0  0  0  0  0  0  0  0  0  0  0
   30.1207    6.6597   41.4375 C   0  0  0  0  0  0  0  0  0  0  0  0
   26.4316    3.7430   42.3462 H   0  0  0  0  0  0  0  0  0  0  0  0
   27.6346    6.3341   40.2800 H   0  0  0  0  0  0  0  0  0  0  0  0
   24.5632    4.6048   34.4880 C   0  0  0  0  0  0  0  0  0  0  0  0
   25.7539    3.7167   34.6756 C   0  0  0  0  0  0  0  0  0  0  0  0
   25.7271    2.3992   34.2298 C   0  0  0  0  0  0  0  0  0  0  0  0
   26.8560    1.6068   34.4092 C   0  0  0  0  0  0  0  0  0  0  0  0
   27.9788    2.1489   35.0208 C   0  0  0  0  0  0  0  0  0  0  0  0
   27.9346    3.4771   35.4318 C   0  0  0  0  0  0  0  0  0  0  0  0
   26.8441    4.2668   35.2541 N   0  0  0  0  0  0  0  0  0  0  0  0
   29.3864    6.9658   36.8360 C   0  0  0  0  0  0  0  0  0  0  0  0
   29.4036    6.9869   35.4273 C   0  0  0  0  0  0  0  0  0  0  0  0
   28.8852    8.0684   34.7052 C   0  0  0  0  0  0  0  0  0  0  0  0
   28.3379    9.1587   35.3788 C   0  0  0  0  0  0  0  0  0  0  0  0
   28.3036    9.1471   36.7724 C   0  0  0  0  0  0  0  0  0  0  0  0
   28.8154    8.0632   37.4866 C   0  0  0  0  0  0  0  0  0  0  0  0
   28.7284    8.1122   38.8206 F   0  0  0  0  0  0  0  0  0  0  0  0
   27.8132   10.2816   34.8031 O   0  0  0  0  0  0  0  0  0  0  0  0
   28.6458   10.9891   33.8847 C   0  0  0  0  0  0  0  0  0  0  0  0
   27.9807   10.9357   32.5305 C   0  0  0  0  0  0  0  0  0  0  0  0
   26.8402   11.7068   32.2626 C   0  0  0  0  0  0  0  0  0  0  0  0
   26.2126   11.6313   31.0178 C   0  0  0  0  0  0  0  0  0  0  0  0
   26.7197   10.7807   30.0377 C   0  0  0  0  0  0  0  0  0  0  0  0
   25.9414   10.6864   28.5080 Cl  0  0  0  0  0  0  0  0  0  0  0  0
   27.8476   10.0029   30.2908 C   0  0  0  0  0  0  0  0  0  0  0  0
   28.4747   10.0790   31.5356 C   0  0  0  0  0  0  0  0  0  0  0  0
 25 26  1  0
 26 27  2  0
 27 28  1  0
 28 29  2  0
 29 30  1  0
 30  1  1  0
  1  2  2  0
  1  3  1  0
  3  4  1  0
  4  5  2  0
  5  6  1  0
  6  7  2  0
  7  8  1  0
  8  9  1  0
  8 10  2  0
 10 11  1  0
 11 12  1  0
 12 13  2  0
 13 14  1  0
 14 32  1  0
 32 33  2  0
 33 34  1  0
 34 35  2  0
 35 39  1  0
 39 40  1  0
 40 41  1  0
 41 42  2  0
 42 43  1  0
 43 44  2  0
 44 45  1  0
 44 46  1  0
 46 47  2  0
 35 36  1  0
 36 37  2  0
 37 38  1  0
 13 15  1  0
 15 16  2  0
 15 17  2  0
 15 18  1  0
 18 19  1  0
 19 20  1  0
 19 21  1  0
 19 22  1  0
 30 31  2  0
 31 26  1  0
 14  3  1  0
 37 32  1  0
 10  4  1  0
 22 12  1  0
 47 41  1  0
  9 23  1  0
 11 24  1  0
M  END
> <minimizedAffinity>
-10.41247

> <CNNscore>
0.3527709842

> <CNNaffinity>
7.2343010902

> <CNN_VS>
2.5520515442

> <CNNaffinity_variance>
0.3204734623

$$$$



 47 52  0  0  0  0  0  0  0  0999 V2000
   25.7959    5.0143   37.4104 C   0  0  0  0  0  0  0  0  0  0  0  0
   25.0492    5.5248   38.2553 O   0  0  0  0  0  0  0  0  0  0  0  0
   27.1887    5.2909   37.3674 N   0  0  0  0  0  0  0  0  0  0  0  0
   27.9439    5.2956   36.1411 C   0  0  0  0  0  0  0  0  0  0  0  0
   27.2728    5.5664   34.9275 C   0  0  0  0  0  0  0  0  0  0  0  0
   27.9095    5.4974   33.6826 C   0  0  0  0  0  0  0  0  0  0  0  0
   29.2544    5.1717   33.6080 C   0  0  0  0  0  0  0  0  0  0  0  0
   29.9490    4.9665   34.7899 C   0  0  0  0  0  0  0  0  0  0  0  0
   31.2995    4.6998   34.7602 O   0  0  0  0  0  0  0  0  0  0  0  0
   29.3277    5.0528   36.0609 C   0  0  0  0  0  0  0  0  0  0  0  0
   30.1933    4.9214   37.1846 N   0  0  0  0  0  0  0  0  0  0  0  0
   30.2154    5.9340   38.1309 C   0  0  0  0  0  0  0  0  0  0  0  0
   29.0923    6.2944   38.7814 C   0  0  0  0  0  0  0  0  0  0  0  0
   27.7584    5.5926   38.6963 C   0  0  0  0  0  0  0  0  0  0  0  0
   29.0982    7.6446   39.8799 S   0  0  0  0  0  0  0  0  0  0  0  0
   28.9138    7.1542   41.2347 O   0  0  0  0  0  0  0  0  0  0  0  0
   28.1989    8.6622   39.3661 O   0  0  0  0  0  0  0  0  0  0  0  0
   30.7227    8.3431   39.8034 C   0  0  0  0  0  0  0  0  0  0  0  0
   31.8326    7.3078   39.6419 C   0  0  0  0  0  0  0  0  0  0  0  0
   31.9150    6.3371   40.8350 C   0  0  0  0  0  0  0  0  0  0  0  0
   33.1821    8.0504   39.5499 C   0  0  0  0  0  0  0  0  0  0  0  0
   31.5920    6.5471   38.3280 C   0  0  0  0  0  0  0  0  0  0  0  0
   31.7463    4.6350   33.9391 H   0  0  0  0  0  0  0  0  0  0  0  0
   30.7651    4.1266   37.2871 H   0  0  0  0  0  0  0  0  0  0  0  0
   24.0153    0.4990   36.8550 C   0  0  0  0  0  0  0  0  0  0  0  0
   24.3132    1.8358   36.2500 C   0  0  0  0  0  0  0  0  0  0  0  0
   23.9488    2.1114   34.9361 C   0  0  0  0  0  0  0  0  0  0  0  0
   24.2298    3.3683   34.4111 C   0  0  0  0  0  0  0  0  0  0  0  0
   24.8590    4.3149   35.2089 C   0  0  0  0  0  0  0  0  0  0  0  0
   25.1848    3.9698   36.5165 C   0  0  0  0  0  0  0  0  0  0  0  0
   24.9075    2.7509   37.0472 N   0  0  0  0  0  0  0  0  0  0  0  0
   27.6662    4.4002   39.6643 C   0  0  0  0  0  0  0  0  0  0  0  0
   26.9296    4.5388   40.8573 C   0  0  0  0  0  0  0  0  0  0  0  0
   26.8266    3.4908   41.7797 C   0  0  0  0  0  0  0  0  0  0  0  0
   27.4628    2.2765   41.5297 C   0  0  0  0  0  0  0  0  0  0  0  0
   28.1860    2.1206   40.3480 C   0  0  0  0  0  0  0  0  0  0  0  0
   28.2792    3.1664   39.4291 C   0  0  0  0  0  0  0  0  0  0  0  0
   28.9716    2.9369   38.3076 F   0  0  0  0  0  0  0  0  0  0  0  0
   27.4582    1.1805   42.3460 O   0  0  0  0  0  0  0  0  0  0  0  0
   26.2535    0.9109   43.0627 C   0  0  0  0  0  0  0  0  0  0  0  0
   25.7057   -0.4021   42.5579 C   0  0  0  0  0  0  0  0  0  0  0  0
   24.6024   -1.0038   43.1806 C   0  0  0  0  0  0  0  0  0  0  0  0
   24.1182   -2.2323   42.7273 C   0  0  0  0  0  0  0  0  0  0  0  0
   24.7385   -2.8667   41.6531 C   0  0  0  0  0  0  0  0  0  0  0  0
   24.1430   -4.3816   41.1008 Cl  0  0  0  0  0  0  0  0  0  0  0  0
   25.8399   -2.2854   41.0284 C   0  0  0  0  0  0  0  0  0  0  0  0
   26.3233   -1.0569   41.4820 C   0  0  0  0  0  0  0  0  0  0  0  0
 25 26  1  0
 26 27  2  0
 27 28  1  0
 28 29  2  0
 29 30  1  0
 30  1  1  0
  1  2  2  0
  1  3  1  0
  3  4  1  0
  4  5  2  0
  5  6  1  0
  6  7  2  0
  7  8  1  0
  8  9  1  0
  8 10  2  0
 10 11  1  0
 11 12  1  0
 12 13  2  0
 13 14  1  0
 14 32  1  0
 32 33  2  0
 33 34  1  0
 34 35  2  0
 35 39  1  0
 39 40  1  0
 40 41  1  0
 41 42  2  0
 42 43  1  0
 43 44  2  0
 44 45  1  0
 44 46  1  0
 46 47  2  0
 35 36  1  0
 36 37  2  0
 37 38  1  0
 13 15  1  0
 15 16  2  0
 15 17  2  0
 15 18  1  0
 18 19  1  0
 19 20  1  0
 19 21  1  0
 19 22  1  0
 30 31  2  0
 31 26  1  0
 14  3  1  0
 37 32  1  0
 10  4  1  0
 22 12  1  0
 47 41  1  0
  9 23  1  0
 11 24  1  0
M  END
> <minimizedAffinity>
-9.46042

> <CNNscore>
0.2909998894

> <CNNaffinity>
6.7287993431

> <CNN_VS>
1.9580798149

> <CNNaffinity_variance>
0.2563755512

$$$$



 47 52  0  0  0  0  0  0  0  0999 V2000
   33.4645    5.9675   39.4670 C   0  0  0  0  0  0  0  0  0  0  0  0
   33.0373    6.9628   40.0661 O   0  0  0  0  0  0  0  0  0  0  0  0
   32.7442    4.7437   39.4256 N   0  0  0  0  0  0  0  0  0  0  0  0
   33.3937    3.4603   39.3543 C   0  0  0  0  0  0  0  0  0  0  0  0
   34.7062    3.3306   39.8615 C   0  0  0  0  0  0  0  0  0  0  0  0
   35.4450    2.1469   39.7468 C   0  0  0  0  0  0  0  0  0  0  0  0
   34.8863    1.0369   39.1334 C   0  0  0  0  0  0  0  0  0  0  0  0
   33.5766    1.1202   38.6872 C   0  0  0  0  0  0  0  0  0  0  0  0
   32.9666    0.0205   38.1265 O   0  0  0  0  0  0  0  0  0  0  0  0
   32.8049    2.3023   38.8132 C   0  0  0  0  0  0  0  0  0  0  0  0
   31.4440    2.2011   38.4047 N   0  0  0  0  0  0  0  0  0  0  0  0
   30.4495    2.5350   39.3106 C   0  0  0  0  0  0  0  0  0  0  0  0
   30.4043    3.7625   39.8635 C   0  0  0  0  0  0  0  0  0  0  0  0
   31.2808    4.9331   39.4885 C   0  0  0  0  0  0  0  0  0  0  0  0
   29.2277    4.1402   41.0893 S   0  0  0  0  0  0  0  0  0  0  0  0
   28.2701    5.0902   40.5506 O   0  0  0  0  0  0  0  0  0  0  0  0
   29.9289    4.4612   42.3195 O   0  0  0  0  0  0  0  0  0  0  0  0
   28.3406    2.6421   41.4081 C   0  0  0  0  0  0  0  0  0  0  0  0
   28.1048    1.7881   40.1652 C   0  0  0  0  0  0  0  0  0  0  0  0
   27.2365    2.5023   39.1122 C   0  0  0  0  0  0  0  0  0  0  0  0
   27.3621    0.5040   40.5899 C   0  0  0  0  0  0  0  0  0  0  0  0
   29.4733    1.4021   39.5812 C   0  0  0  0  0  0  0  0  0  0  0  0
   33.4437   -0.7796   38.0260 H   0  0  0  0  0  0  0  0  0  0  0  0
   31.2142    1.8997   37.4960 H   0  0  0  0  0  0  0  0  0  0  0  0
   38.2846    6.7527   39.3375 C   0  0  0  0  0  0  0  0  0  0  0  0
   37.0126    6.5033   38.5883 C   0  0  0  0  0  0  0  0  0  0  0  0
   37.0258    6.3651   37.2041 C   0  0  0  0  0  0  0  0  0  0  0  0
   35.8270    6.1212   36.5424 C   0  0  0  0  0  0  0  0  0  0  0  0
   34.6526    6.0165   37.2763 C   0  0  0  0  0  0  0  0  0  0  0  0
   34.7192    6.1567   38.6586 C   0  0  0  0  0  0  0  0  0  0  0  0
   35.8831    6.3841   39.3204 N   0  0  0  0  0  0  0  0  0  0  0  0
   30.7315    5.7058   38.2768 C   0  0  0  0  0  0  0  0  0  0  0  0
   29.9061    6.8270   38.4933 C   0  0  0  0  0  0  0  0  0  0  0  0
   29.3673    7.5560   37.4265 C   0  0  0  0  0  0  0  0  0  0  0  0
   29.6411    7.1769   36.1138 C   0  0  0  0  0  0  0  0  0  0  0  0
   30.4653    6.0763   35.8838 C   0  0  0  0  0  0  0  0  0  0  0  0
   31.0052    5.3578   36.9511 C   0  0  0  0  0  0  0  0  0  0  0  0
   31.8047    4.3271   36.6541 F   0  0  0  0  0  0  0  0  0  0  0  0
   29.1718    7.7858   34.9839 O   0  0  0  0  0  0  0  0  0  0  0  0
   28.6570    9.1095   35.1269 C   0  0  0  0  0  0  0  0  0  0  0  0
   28.0706    9.5177   33.7971 C   0  0  0  0  0  0  0  0  0  0  0  0
   27.7650    8.5549   32.8240 C   0  0  0  0  0  0  0  0  0  0  0  0
   27.2499    8.9410   31.5852 C   0  0  0  0  0  0  0  0  0  0  0  0
   27.0431   10.2916   31.3124 C   0  0  0  0  0  0  0  0  0  0  0  0
   26.4134   10.7638   29.7842 Cl  0  0  0  0  0  0  0  0  0  0  0  0
   27.3483   11.2606   32.2658 C   0  0  0  0  0  0  0  0  0  0  0  0
   27.8631   10.8738   33.5043 C   0  0  0  0  0  0  0  0  0  0  0  0
 25 26  1  0
 26 27  2  0
 27 28  1  0
 28 29  2  0
 29 30  1  0
 30  1  1  0
  1  2  2  0
  1  3  1  0
  3  4  1  0
  4  5  2  0
  5  6  1  0
  6  7  2  0
  7  8  1  0
  8  9  1  0
  8 10  2  0
 10 11  1  0
 11 12  1  0
 12 13  2  0
 13 14  1  0
 14 32  1  0
 32 33  2  0
 33 34  1  0
 34 35  2  0
 35 39  1  0
 39 40  1  0
 40 41  1  0
 41 42  2  0
 42 43  1  0
 43 44  2  0
 44 45  1  0
 44 46  1  0
 46 47  2  0
 35 36  1  0
 36 37  2  0
 37 38  1  0
 13 15  1  0
 15 16  2  0
 15 17  2  0
 15 18  1  0
 18 19  1  0
 19 20  1  0
 19 21  1  0
 19 22  1  0
 30 31  2  0
 31 26  1  0
 14  3  1  0
 37 32  1  0
 10  4  1  0
 22 12  1  0
 47 41  1  0
  9 23  1  0
 11 24  1  0
M  END
> <minimizedAffinity>
-8.60296

> <CNNscore>
0.1914947331

> <CNNaffinity>
6.1268024445

> <CNN_VS>
1.1732504368

> <CNNaffinity_variance>
0.7409822345

$$$$



 47 52  0  0  0  0  0  0  0  0999 V2000
   31.3024    7.2796   38.2078 C   0  0  0  0  0  0  0  0  0  0  0  0
   32.0094    8.2524   38.5008 O   0  0  0  0  0  0  0  0  0  0  0  0
   31.8511    6.0746   37.6929 N   0  0  0  0  0  0  0  0  0  0  0  0
   31.1397    5.2269   36.7712 C   0  0  0  0  0  0  0  0  0  0  0  0
   30.1486    5.7999   35.9429 C   0  0  0  0  0  0  0  0  0  0  0  0
   29.3455    5.0346   35.0889 C   0  0  0  0  0  0  0  0  0  0  0  0
   29.5192    3.6616   35.0182 C   0  0  0  0  0  0  0  0  0  0  0  0
   30.5296    3.0858   35.7724 C   0  0  0  0  0  0  0  0  0  0  0  0
   30.7725    1.7333   35.6840 O   0  0  0  0  0  0  0  0  0  0  0  0
   31.3672    3.8457   36.6265 C   0  0  0  0  0  0  0  0  0  0  0  0
   32.4264    3.1294   37.2544 N   0  0  0  0  0  0  0  0  0  0  0  0
   33.7276    3.5731   37.0778 C   0  0  0  0  0  0  0  0  0  0  0  0
   34.0855    4.8208   37.4379 C   0  0  0  0  0  0  0  0  0  0  0  0
   33.2191    5.8083   38.1817 C   0  0  0  0  0  0  0  0  0  0  0  0
   35.6874    5.4148   37.1051 S   0  0  0  0  0  0  0  0  0  0  0  0
   36.4023    5.5785   38.3589 O   0  0  0  0  0  0  0  0  0  0  0  0
   35.5824    6.5427   36.1968 O   0  0  0  0  0  0  0  0  0  0  0  0
   36.5167    4.1365   36.2045 C   0  0  0  0  0  0  0  0  0  0  0  0
   36.1555    2.7257   36.6617 C   0  0  0  0  0  0  0  0  0  0  0  0
   36.5598    2.4554   38.1233 C   0  0  0  0  0  0  0  0  0  0  0  0
   36.9129    1.7167   35.7733 C   0  0  0  0  0  0  0  0  0  0  0  0
   34.6442    2.5286   36.4624 C   0  0  0  0  0  0  0  0  0  0  0  0
   30.2403    1.1969   35.1299 H   0  0  0  0  0  0  0  0  0  0  0  0
   32.2378    2.3342   37.8033 H   0  0  0  0  0  0  0  0  0  0  0  0
   27.3871    5.3678   40.4174 C   0  0  0  0  0  0  0  0  0  0  0  0
   27.9845    6.4913   39.6284 C   0  0  0  0  0  0  0  0  0  0  0  0
   27.2267    7.6164   39.3199 C   0  0  0  0  0  0  0  0  0  0  0  0
   27.8183    8.6464   38.5963 C   0  0  0  0  0  0  0  0  0  0  0  0
   29.1460    8.5299   38.2061 C   0  0  0  0  0  0  0  0  0  0  0  0
   29.8430    7.3791   38.5594 C   0  0  0  0  0  0  0  0  0  0  0  0
   29.2830    6.3696   39.2748 N   0  0  0  0  0  0  0  0  0  0  0  0
   33.2725    5.5966   39.7047 C   0  0  0  0  0  0  0  0  0  0  0  0
   32.5974    4.4965   40.2698 C   0  0  0  0  0  0  0  0  0  0  0  0
   32.6008    4.2663   41.6506 C   0  0  0  0  0  0  0  0  0  0  0  0
   33.2803    5.1364   42.5011 C   0  0  0  0  0  0  0  0  0  0  0  0
   33.9623    6.2230   41.9556 C   0  0  0  0  0  0  0  0  0  0  0  0
   33.9613    6.4433   40.5778 C   0  0  0  0  0  0  0  0  0  0  0  0
   34.6554    7.4932   40.1244 F   0  0  0  0  0  0  0  0  0  0  0  0
   33.3533    5.0403   43.8624 O   0  0  0  0  0  0  0  0  0  0  0  0
   33.8501    6.1780   44.5670 C   0  0  0  0  0  0  0  0  0  0  0  0
   35.0208    5.7217   45.4038 C   0  0  0  0  0  0  0  0  0  0  0  0
   36.0975    6.5837   45.6584 C   0  0  0  0  0  0  0  0  0  0  0  0
   37.1905    6.1466   46.4089 C   0  0  0  0  0  0  0  0  0  0  0  0
   37.2139    4.8442   46.9033 C   0  0  0  0  0  0  0  0  0  0  0  0
   38.5636    4.3076   47.8226 Cl  0  0  0  0  0  0  0  0  0  0  0  0
   36.1554    3.9735   46.6530 C   0  0  0  0  0  0  0  0  0  0  0  0
   35.0627    4.4114   45.9028 C   0  0  0  0  0  0  0  0  0  0  0  0
 25 26  1  0
 26 27  2  0
 27 28  1  0
 28 29  2  0
 29 30  1  0
 30  1  1  0
  1  2  2  0
  1  3  1  0
  3  4  1  0
  4  5  2  0
  5  6  1  0
  6  7  2  0
  7  8  1  0
  8  9  1  0
  8 10  2  0
 10 11  1  0
 11 12  1  0
 12 13  2  0
 13 14  1  0
 14 32  1  0
 32 33  2  0
 33 34  1  0
 34 35  2  0
 35 39  1  0
 39 40  1  0
 40 41  1  0
 41 42  2  0
 42 43  1  0
 43 44  2  0
 44 45  1  0
 44 46  1  0
 46 47  2  0
 35 36  1  0
 36 37  2  0
 37 38  1  0
 13 15  1  0
 15 16  2  0
 15 17  2  0
 15 18  1  0
 18 19  1  0
 19 20  1  0
 19 21  1  0
 19 22  1  0
 30 31  2  0
 31 26  1  0
 14  3  1  0
 37 32  1  0
 10  4  1  0
 22 12  1  0
 47 41  1  0
  9 23  1  0
 11 24  1  0
M  END
> <minimizedAffinity>
-8.51134

> <CNNscore>
0.1484320462

> <CNNaffinity>
5.4179396629

> <CNN_VS>
0.8041958809

> <CNNaffinity_variance>
0.6649941802

$$$$
