


 22 24  0  0  0  0  0  0  0  0999 V2000
    6.1551   69.7834   65.8426 C   0  0  0  0  0  0  0  0  0  0  0  0
    5.7128   69.3308   64.4859 C   0  0  0  0  0  0  0  0  0  0  0  0
    4.7640   68.4166   64.1814 C   0  0  0  0  0  0  0  0  0  0  0  0
    3.9633   67.6301   65.2108 C   0  0  0  0  0  0  0  0  0  0  0  0
    4.0514   66.1365   64.9433 C   0  0  0  0  0  0  0  0  0  0  0  0
    4.4182   65.6105   63.7583 C   0  0  0  0  0  0  0  0  0  0  0  0
    4.5263   64.1334   63.5258 C   0  0  0  0  0  0  0  0  0  0  0  0
    4.7409   66.5050   62.5704 C   0  0  0  0  0  0  0  0  0  0  0  0
    4.3093   67.9975   62.7622 C   0  0  0  0  0  0  0  0  0  0  0  0
    4.9617   68.8252   61.7364 N   0  0  0  0  0  0  0  0  0  0  0  0
    2.7720   68.1135   62.6460 C   0  0  0  0  0  0  0  0  0  0  0  0
    2.1244   68.0850   61.3418 C   0  0  0  0  0  0  0  0  0  0  0  0
    2.8756   67.8736   60.2406 F   0  0  0  0  0  0  0  0  0  0  0  0
    0.8036   68.2199   61.1887 C   0  0  0  0  0  0  0  0  0  0  0  0
   -0.0412   68.3814   62.3855 C   0  0  0  0  0  0  0  0  0  0  0  0
   -1.2548   68.5233   62.2952 O   0  0  0  0  0  0  0  0  0  0  0  0
    0.6117   68.3416   63.5904 N   0  0  0  0  0  0  0  0  0  0  0  0
    1.9756   68.2059   63.7367 C   0  0  0  0  0  0  0  0  0  0  0  0
    2.5047   68.1268   65.1516 C   0  0  0  0  0  0  0  0  0  0  0  0
    4.6472   68.5311   60.8117 H   0  0  0  0  0  0  0  0  0  0  0  0
    5.9735   68.7140   61.8027 H   0  0  0  0  0  0  0  0  0  0  0  0
    0.0685   68.4151   64.4082 H   0  0  0  0  0  0  0  0  0  0  0  0
  1  2  1  0
  2  3  2  0
  3  4  1  0
  4  5  1  0
  5  6  2  0
  6  7  1  0
  6  8  1  0
  8  9  1  0
  9 10  1  0
  9 11  1  0
 11 12  1  0
 12 13  1  0
 12 14  2  0
 14 15  1  0
 15 16  2  0
 15 17  1  0
 17 18  1  0
 18 19  1  0
  9  3  1  0
 18 11  2  0
  4 19  1  0
 10 20  1  0
 10 21  1  0
 17 22  1  0
M  END
> <minimizedAffinity>
-11.16392

> <CNNscore>
0.9589022398

> <CNNaffinity>
7.3420386314

> <CNN_VS>
7.0402975082

> <CNNaffinity_variance>
0.3364251554

$$$$



 22 24  0  0  0  0  0  0  0  0999 V2000
    4.5252   63.4783   63.9388 C   0  0  0  0  0  0  0  0  0  0  0  0
    3.5176   64.5011   64.3626 C   0  0  0  0  0  0  0  0  0  0  0  0
    3.4902   65.8187   64.0592 C   0  0  0  0  0  0  0  0  0  0  0  0
    4.5423   66.5316   63.2199 C   0  0  0  0  0  0  0  0  0  0  0  0
    5.0904   67.7462   63.9512 C   0  0  0  0  0  0  0  0  0  0  0  0
    4.4605   68.3449   64.9809 C   0  0  0  0  0  0  0  0  0  0  0  0
    5.0342   69.5247   65.7064 C   0  0  0  0  0  0  0  0  0  0  0  0
    3.1055   67.8499   65.4650 C   0  0  0  0  0  0  0  0  0  0  0  0
    2.4109   66.8417   64.4895 C   0  0  0  0  0  0  0  0  0  0  0  0
    1.3049   66.1734   65.1917 N   0  0  0  0  0  0  0  0  0  0  0  0
    1.8793   67.5989   63.2508 C   0  0  0  0  0  0  0  0  0  0  0  0
    0.6524   68.3794   63.3311 C   0  0  0  0  0  0  0  0  0  0  0  0
    0.0287   68.5009   64.5219 F   0  0  0  0  0  0  0  0  0  0  0  0
    0.1337   69.0192   62.2786 C   0  0  0  0  0  0  0  0  0  0  0  0
    0.8388   68.9558   60.9859 C   0  0  0  0  0  0  0  0  0  0  0  0
    0.3951   69.5134   59.9893 O   0  0  0  0  0  0  0  0  0  0  0  0
    2.0189   68.2578   60.9799 N   0  0  0  0  0  0  0  0  0  0  0  0
    2.5428   67.5982   62.0709 C   0  0  0  0  0  0  0  0  0  0  0  0
    3.8864   66.9294   61.8823 C   0  0  0  0  0  0  0  0  0  0  0  0
    0.6077   66.8661   65.4648 H   0  0  0  0  0  0  0  0  0  0  0  0
    1.6638   65.7058   66.0241 H   0  0  0  0  0  0  0  0  0  0  0  0
    2.5275   68.2255   60.1376 H   0  0  0  0  0  0  0  0  0  0  0  0
  1  2  1  0
  2  3  2  0
  3  4  1  0
  4  5  1  0
  5  6  2  0
  6  7  1  0
  6  8  1  0
  8  9  1  0
  9 10  1  0
  9 11  1  0
 11 12  1  0
 12 13  1  0
 12 14  2  0
 14 15  1  0
 15 16  2  0
 15 17  1  0
 17 18  1  0
 18 19  1  0
  9  3  1  0
 18 11  2  0
  4 19  1  0
 10 20  1  0
 10 21  1  0
 17 22  1  0
M  END
> <minimizedAffinity>
-10.90057

> <CNNscore>
0.9373747110

> <CNNaffinity>
7.2680878639

> <CNN_VS>
6.8129215240

> <CNNaffinity_variance>
0.3749719560

$$$$



 22 24  0  0  0  0  0  0  0  0999 V2000
    6.4121   70.4046   66.2906 C   0  0  0  0  0  0  0  0  0  0  0  0
    5.0995   69.7957   65.9068 C   0  0  0  0  0  0  0  0  0  0  0  0
    4.8588   68.8698   64.9510 C   0  0  0  0  0  0  0  0  0  0  0  0
    5.9235   68.2788   64.0363 C   0  0  0  0  0  0  0  0  0  0  0  0
    5.5244   68.4173   62.5762 C   0  0  0  0  0  0  0  0  0  0  0  0
    4.2601   68.6369   62.1653 C   0  0  0  0  0  0  0  0  0  0  0  0
    3.8940   68.7992   60.7206 C   0  0  0  0  0  0  0  0  0  0  0  0
    3.1159   68.7259   63.1644 C   0  0  0  0  0  0  0  0  0  0  0  0
    3.4891   68.2373   64.6041 C   0  0  0  0  0  0  0  0  0  0  0  0
    2.4525   68.6799   65.5488 N   0  0  0  0  0  0  0  0  0  0  0  0
    3.6025   66.6954   64.6170 C   0  0  0  0  0  0  0  0  0  0  0  0
    2.4058   65.8657   64.6364 C   0  0  0  0  0  0  0  0  0  0  0  0
    1.1953   66.4580   64.5602 F   0  0  0  0  0  0  0  0  0  0  0  0
    2.4535   64.5311   64.6865 C   0  0  0  0  0  0  0  0  0  0  0  0
    3.7674   63.8635   64.6994 C   0  0  0  0  0  0  0  0  0  0  0  0
    3.8626   62.6436   64.7596 O   0  0  0  0  0  0  0  0  0  0  0  0
    4.8600   64.6880   64.6196 N   0  0  0  0  0  0  0  0  0  0  0  0
    4.7992   66.0643   64.5724 C   0  0  0  0  0  0  0  0  0  0  0  0
    6.1132   66.7999   64.4294 C   0  0  0  0  0  0  0  0  0  0  0  0
    1.5609   68.2511   65.3006 H   0  0  0  0  0  0  0  0  0  0  0  0
    2.3649   69.6952   65.5064 H   0  0  0  0  0  0  0  0  0  0  0  0
    5.7499   64.2678   64.5943 H   0  0  0  0  0  0  0  0  0  0  0  0
  1  2  1  0
  2  3  2  0
  3  4  1  0
  4  5  1  0
  5  6  2  0
  6  7  1  0
  6  8  1  0
  8  9  1  0
  9 10  1  0
  9 11  1  0
 11 12  1  0
 12 13  1  0
 12 14  2  0
 14 15  1  0
 15 16  2  0
 15 17  1  0
 17 18  1  0
 18 19  1  0
  9  3  1  0
 18 11  2  0
  4 19  1  0
 10 20  1  0
 10 21  1  0
 17 22  1  0
M  END
> <minimizedAffinity>
-7.34619

> <CNNscore>
0.7814561129

> <CNNaffinity>
7.0774598122

> <CNN_VS>
5.5307240486

> <CNNaffinity_variance>
0.5828549862

$$$$



 22 24  0  0  0  0  0  0  0  0999 V2000
    2.6944   68.1131   59.5831 C   0  0  0  0  0  0  0  0  0  0  0  0
    2.3827   68.1505   61.0468 C   0  0  0  0  0  0  0  0  0  0  0  0
    3.1624   67.7456   62.0748 C   0  0  0  0  0  0  0  0  0  0  0  0
    4.5444   67.1255   61.9158 C   0  0  0  0  0  0  0  0  0  0  0  0
    4.6335   65.7987   62.6519 C   0  0  0  0  0  0  0  0  0  0  0  0
    3.7844   65.4293   63.6307 C   0  0  0  0  0  0  0  0  0  0  0  0
    3.8736   64.1026   64.3232 C   0  0  0  0  0  0  0  0  0  0  0  0
    2.6746   66.3598   64.0976 C   0  0  0  0  0  0  0  0  0  0  0  0
    2.8188   67.8308   63.5819 C   0  0  0  0  0  0  0  0  0  0  0  0
    1.5493   68.5432   63.7911 N   0  0  0  0  0  0  0  0  0  0  0  0
    3.9626   68.5393   64.3436 C   0  0  0  0  0  0  0  0  0  0  0  0
    3.7571   69.0263   65.7007 C   0  0  0  0  0  0  0  0  0  0  0  0
    2.5815   68.7788   66.3158 F   0  0  0  0  0  0  0  0  0  0  0  0
    4.7025   69.6779   66.3846 C   0  0  0  0  0  0  0  0  0  0  0  0
    6.0171   69.8960   65.7550 C   0  0  0  0  0  0  0  0  0  0  0  0
    6.9103   70.5005   66.3361 O   0  0  0  0  0  0  0  0  0  0  0  0
    6.1769   69.3658   64.5007 N   0  0  0  0  0  0  0  0  0  0  0  0
    5.1932   68.6987   63.8027 C   0  0  0  0  0  0  0  0  0  0  0  0
    5.5780   68.1364   62.4521 C   0  0  0  0  0  0  0  0  0  0  0  0
    1.3444   68.5867   64.7894 H   0  0  0  0  0  0  0  0  0  0  0  0
    0.7982   68.0476   63.3111 H   0  0  0  0  0  0  0  0  0  0  0  0
    7.0554   69.4687   64.0686 H   0  0  0  0  0  0  0  0  0  0  0  0
  1  2  1  0
  2  3  2  0
  3  4  1  0
  4  5  1  0
  5  6  2  0
  6  7  1  0
  6  8  1  0
  8  9  1  0
  9 10  1  0
  9 11  1  0
 11 12  1  0
 12 13  1  0
 12 14  2  0
 14 15  1  0
 15 16  2  0
 15 17  1  0
 17 18  1  0
 18 19  1  0
  9  3  1  0
 18 11  2  0
  4 19  1  0
 10 20  1  0
 10 21  1  0
 17 22  1  0
M  END
> <minimizedAffinity>
-9.26668

> <CNNscore>
0.7583169341

> <CNNaffinity>
6.7950148582

> <CNN_VS>
5.1527748108

> <CNNaffinity_variance>
0.2035513371

$$$$



 22 24  0  0  0  0  0  0  0  0999 V2000
    0.1806   69.4374   62.1220 C   0  0  0  0  0  0  0  0  0  0  0  0
    1.4741   68.7093   61.9282 C   0  0  0  0  0  0  0  0  0  0  0  0
    2.3103   68.2302   62.8769 C   0  0  0  0  0  0  0  0  0  0  0  0
    2.0882   68.3795   64.3762 C   0  0  0  0  0  0  0  0  0  0  0  0
    3.3064   68.9913   65.0485 C   0  0  0  0  0  0  0  0  0  0  0  0
    4.5347   69.0088   64.4951 C   0  0  0  0  0  0  0  0  0  0  0  0
    5.7163   69.6440   65.1644 C   0  0  0  0  0  0  0  0  0  0  0  0
    4.7927   68.3663   63.1401 C   0  0  0  0  0  0  0  0  0  0  0  0
    3.6264   67.4509   62.6377 C   0  0  0  0  0  0  0  0  0  0  0  0
    3.8159   67.1678   61.2070 N   0  0  0  0  0  0  0  0  0  0  0  0
    3.6132   66.1339   63.4473 C   0  0  0  0  0  0  0  0  0  0  0  0
    4.5758   65.0793   63.1601 C   0  0  0  0  0  0  0  0  0  0  0  0
    5.5324   65.2985   62.2336 F   0  0  0  0  0  0  0  0  0  0  0  0
    4.5791   63.9096   63.8065 C   0  0  0  0  0  0  0  0  0  0  0  0
    3.5859   63.6789   64.8706 C   0  0  0  0  0  0  0  0  0  0  0  0
    3.5399   62.6176   65.4811 O   0  0  0  0  0  0  0  0  0  0  0  0
    2.7424   64.7254   65.1410 N   0  0  0  0  0  0  0  0  0  0  0  0
    2.7451   65.9266   64.4650 C   0  0  0  0  0  0  0  0  0  0  0  0
    1.7740   66.9817   64.9465 C   0  0  0  0  0  0  0  0  0  0  0  0
    4.6875   66.6548   61.0745 H   0  0  0  0  0  0  0  0  0  0  0  0
    3.8558   68.0456   60.6890 H   0  0  0  0  0  0  0  0  0  0  0  0
    2.0893   64.6109   65.8687 H   0  0  0  0  0  0  0  0  0  0  0  0
  1  2  1  0
  2  3  2  0
  3  4  1  0
  4  5  1  0
  5  6  2  0
  6  7  1  0
  6  8  1  0
  8  9  1  0
  9 10  1  0
  9 11  1  0
 11 12  1  0
 12 13  1  0
 12 14  2  0
 14 15  1  0
 15 16  2  0
 15 17  1  0
 17 18  1  0
 18 19  1  0
  9  3  1  0
 18 11  2  0
  4 19  1  0
 10 20  1  0
 10 21  1  0
 17 22  1  0
M  END
> <minimizedAffinity>
-9.08345

> <CNNscore>
0.7484757900

> <CNNaffinity>
6.8264088631

> <CNN_VS>
5.1094017029

> <CNNaffinity_variance>
0.3355243206

$$$$



 22 24  0  0  0  0  0  0  0  0999 V2000
    6.0064   70.2866   65.4416 C   0  0  0  0  0  0  0  0  0  0  0  0
    4.8787   69.3066   65.5352 C   0  0  0  0  0  0  0  0  0  0  0  0
    4.4016   68.4911   64.5677 C   0  0  0  0  0  0  0  0  0  0  0  0
    4.9318   68.4452   63.1407 C   0  0  0  0  0  0  0  0  0  0  0  0
    3.8056   68.6246   62.1357 C   0  0  0  0  0  0  0  0  0  0  0  0
    2.5049   68.4317   62.4295 C   0  0  0  0  0  0  0  0  0  0  0  0
    1.4081   68.6429   61.4295 C   0  0  0  0  0  0  0  0  0  0  0  0
    2.0742   67.9739   63.8153 C   0  0  0  0  0  0  0  0  0  0  0  0
    3.2522   67.4641   64.7114 C   0  0  0  0  0  0  0  0  0  0  0  0
    2.7962   67.3787   66.1070 N   0  0  0  0  0  0  0  0  0  0  0  0
    3.7205   66.0767   64.2151 C   0  0  0  0  0  0  0  0  0  0  0  0
    2.9521   64.8803   64.5299 C   0  0  0  0  0  0  0  0  0  0  0  0
    1.7820   65.0068   65.1905 F   0  0  0  0  0  0  0  0  0  0  0  0
    3.3368   63.6562   64.1559 C   0  0  0  0  0  0  0  0  0  0  0  0
    4.5762   63.5053   63.3728 C   0  0  0  0  0  0  0  0  0  0  0  0
    4.9774   62.4029   63.0197 O   0  0  0  0  0  0  0  0  0  0  0  0
    5.2291   64.6678   63.0531 N   0  0  0  0  0  0  0  0  0  0  0  0
    4.8253   65.9253   63.4477 C   0  0  0  0  0  0  0  0  0  0  0  0
    5.6471   67.0929   62.9480 C   0  0  0  0  0  0  0  0  0  0  0  0
    2.0404   66.6973   66.1767 H   0  0  0  0  0  0  0  0  0  0  0  0
    2.4595   68.2923   66.4111 H   0  0  0  0  0  0  0  0  0  0  0  0
    6.0430   64.5996   62.5034 H   0  0  0  0  0  0  0  0  0  0  0  0
  1  2  1  0
  2  3  2  0
  3  4  1  0
  4  5  1  0
  5  6  2  0
  6  7  1  0
  6  8  1  0
  8  9  1  0
  9 10  1  0
  9 11  1  0
 11 12  1  0
 12 13  1  0
 12 14  2  0
 14 15  1  0
 15 16  2  0
 15 17  1  0
 17 18  1  0
 18 19  1  0
  9  3  1  0
 18 11  2  0
  4 19  1  0
 10 20  1  0
 10 21  1  0
 17 22  1  0
M  END
> <minimizedAffinity>
-8.62872

> <CNNscore>
0.7303220034

> <CNNaffinity>
6.9660453796

> <CNN_VS>
5.0874562263

> <CNNaffinity_variance>
0.2662942410

$$$$



 22 24  0  0  0  0  0  0  0  0999 V2000
    0.4003   57.4729   53.1882 C   0  0  0  0  0  0  0  0  0  0  0  0
    0.9394   58.6479   53.9431 C   0  0  0  0  0  0  0  0  0  0  0  0
    0.3062   59.8030   54.2487 C   0  0  0  0  0  0  0  0  0  0  0  0
   -1.1205   60.1391   53.8351 C   0  0  0  0  0  0  0  0  0  0  0  0
   -1.1780   61.4777   53.1174 C   0  0  0  0  0  0  0  0  0  0  0  0
   -0.2114   62.4126   53.2022 C   0  0  0  0  0  0  0  0  0  0  0  0
   -0.2760   63.7146   52.4619 C   0  0  0  0  0  0  0  0  0  0  0  0
    1.0153   62.1941   54.0756 C   0  0  0  0  0  0  0  0  0  0  0  0
    0.8867   60.9854   55.0621 C   0  0  0  0  0  0  0  0  0  0  0  0
    2.2164   60.6529   55.5952 N   0  0  0  0  0  0  0  0  0  0  0  0
   -0.0754   61.3547   56.2146 C   0  0  0  0  0  0  0  0  0  0  0  0
    0.3712   62.2089   57.3062 C   0  0  0  0  0  0  0  0  0  0  0  0
    1.6104   62.7416   57.2579 F   0  0  0  0  0  0  0  0  0  0  0  0
   -0.4114   62.5241   58.3427 C   0  0  0  0  0  0  0  0  0  0  0  0
   -1.7917   62.0087   58.3779 C   0  0  0  0  0  0  0  0  0  0  0  0
   -2.5421   62.2580   59.3138 O   0  0  0  0  0  0  0  0  0  0  0  0
   -2.1800   61.2593   57.2975 N   0  0  0  0  0  0  0  0  0  0  0  0
   -1.3629   60.9368   56.2353 C   0  0  0  0  0  0  0  0  0  0  0  0
   -1.9900   60.1461   55.1085 C   0  0  0  0  0  0  0  0  0  0  0  0
    2.5778   61.4453   56.1262 H   0  0  0  0  0  0  0  0  0  0  0  0
    2.8496   60.4436   54.8234 H   0  0  0  0  0  0  0  0  0  0  0  0
   -3.1070   60.9284   57.2790 H   0  0  0  0  0  0  0  0  0  0  0  0
  1  2  1  0
  2  3  2  0
  3  4  1  0
  4  5  1  0
  5  6  2  0
  6  7  1  0
  6  8  1  0
  8  9  1  0
  9 10  1  0
  9 11  1  0
 11 12  1  0
 12 13  1  0
 12 14  2  0
 14 15  1  0
 15 16  2  0
 15 17  1  0
 17 18  1  0
 18 19  1  0
  9  3  1  0
 18 11  2  0
  4 19  1  0
 10 20  1  0
 10 21  1  0
 17 22  1  0
M  END
> <minimizedAffinity>
100.40507

> <CNNscore>
0.6188610792

> <CNNaffinity>
5.4767441750

> <CNN_VS>
3.3893437386

> <CNNaffinity_variance>
0.5517165065

$$$$



 22 24  0  0  0  0  0  0  0  0999 V2000
    3.8014   63.1783   64.0677 C   0  0  0  0  0  0  0  0  0  0  0  0
    4.2351   64.4019   63.3223 C   0  0  0  0  0  0  0  0  0  0  0  0
    3.8601   65.6836   63.5356 C   0  0  0  0  0  0  0  0  0  0  0  0
    2.8639   66.1240   64.6000 C   0  0  0  0  0  0  0  0  0  0  0  0
    1.7530   66.9641   63.9913 C   0  0  0  0  0  0  0  0  0  0  0  0
    1.8502   67.5769   62.7952 C   0  0  0  0  0  0  0  0  0  0  0  0
    0.7302   68.3770   62.2011 C   0  0  0  0  0  0  0  0  0  0  0  0
    3.1281   67.4930   61.9735 C   0  0  0  0  0  0  0  0  0  0  0  0
    4.3567   66.9302   62.7637 C   0  0  0  0  0  0  0  0  0  0  0  0
    5.4192   66.5698   61.8129 N   0  0  0  0  0  0  0  0  0  0  0  0
    4.8679   67.9970   63.7591 C   0  0  0  0  0  0  0  0  0  0  0  0
    5.6709   69.1191   63.2932 C   0  0  0  0  0  0  0  0  0  0  0  0
    5.8946   69.2612   61.9698 F   0  0  0  0  0  0  0  0  0  0  0  0
    6.1668   70.0444   64.1202 C   0  0  0  0  0  0  0  0  0  0  0  0
    5.8741   69.9447   65.5612 C   0  0  0  0  0  0  0  0  0  0  0  0
    6.3183   70.7603   66.3603 O   0  0  0  0  0  0  0  0  0  0  0  0
    5.0652   68.9040   65.9384 N   0  0  0  0  0  0  0  0  0  0  0  0
    4.5622   67.9526   65.0771 C   0  0  0  0  0  0  0  0  0  0  0  0
    3.6407   66.9121   65.6739 C   0  0  0  0  0  0  0  0  0  0  0  0
    5.7297   67.4054   61.3172 H   0  0  0  0  0  0  0  0  0  0  0  0
    5.0594   65.8907   61.1422 H   0  0  0  0  0  0  0  0  0  0  0  0
    4.8269   68.8311   66.8909 H   0  0  0  0  0  0  0  0  0  0  0  0
  1  2  1  0
  2  3  2  0
  3  4  1  0
  4  5  1  0
  5  6  2  0
  6  7  1  0
  6  8  1  0
  8  9  1  0
  9 10  1  0
  9 11  1  0
 11 12  1  0
 12 13  1  0
 12 14  2  0
 14 15  1  0
 15 16  2  0
 15 17  1  0
 17 18  1  0
 18 19  1  0
  9  3  1  0
 18 11  2  0
  4 19  1  0
 10 20  1  0
 10 21  1  0
 17 22  1  0
M  END
> <minimizedAffinity>
-8.75308

> <CNNscore>
0.5830807090

> <CNNaffinity>
6.6722316742

> <CNN_VS>
3.8904495239

> <CNNaffinity_variance>
0.1036293134

$$$$



 22 24  0  0  0  0  0  0  0  0999 V2000
    0.1122   63.8938   74.4289 C   0  0  0  0  0  0  0  0  0  0  0  0
    0.9219   62.6413   74.5573 C   0  0  0  0  0  0  0  0  0  0  0  0
    0.8355   61.5141   73.8151 C   0  0  0  0  0  0  0  0  0  0  0  0
   -0.1650   61.2999   72.6870 C   0  0  0  0  0  0  0  0  0  0  0  0
   -0.9504   60.0150   72.8928 C   0  0  0  0  0  0  0  0  0  0  0  0
   -0.5470   59.0144   73.7001 C   0  0  0  0  0  0  0  0  0  0  0  0
   -1.3527   57.7678   73.9104 C   0  0  0  0  0  0  0  0  0  0  0  0
    0.7754   59.0964   74.4484 C   0  0  0  0  0  0  0  0  0  0  0  0
    1.7147   60.2478   73.9559 C   0  0  0  0  0  0  0  0  0  0  0  0
    2.7823   60.4576   74.9455 N   0  0  0  0  0  0  0  0  0  0  0  0
    2.3218   59.8729   72.5843 C   0  0  0  0  0  0  0  0  0  0  0  0
    3.4241   58.9251   72.4974 C   0  0  0  0  0  0  0  0  0  0  0  0
    3.8553   58.3151   73.6215 F   0  0  0  0  0  0  0  0  0  0  0  0
    4.0062   58.5993   71.3393 C   0  0  0  0  0  0  0  0  0  0  0  0
    3.5024   59.2022   70.0923 C   0  0  0  0  0  0  0  0  0  0  0  0
    4.0127   58.9460   69.0084 O   0  0  0  0  0  0  0  0  0  0  0  0
    2.4260   60.0411   70.2239 N   0  0  0  0  0  0  0  0  0  0  0  0
    1.8357   60.3734   71.4243 C   0  0  0  0  0  0  0  0  0  0  0  0
    0.6207   61.2722   71.3605 C   0  0  0  0  0  0  0  0  0  0  0  0
    3.3471   59.6116   75.0207 H   0  0  0  0  0  0  0  0  0  0  0  0
    2.3678   60.6715   75.8526 H   0  0  0  0  0  0  0  0  0  0  0  0
    2.0483   60.4334   69.4037 H   0  0  0  0  0  0  0  0  0  0  0  0
  1  2  1  0
  2  3  2  0
  3  4  1  0
  4  5  1  0
  5  6  2  0
  6  7  1  0
  6  8  1  0
  8  9  1  0
  9 10  1  0
  9 11  1  0
 11 12  1  0
 12 13  1  0
 12 14  2  0
 14 15  1  0
 15 16  2  0
 15 17  1  0
 17 18  1  0
 18 19  1  0
  9  3  1  0
 18 11  2  0
  4 19  1  0
 10 20  1  0
 10 21  1  0
 17 22  1  0
M  END
> <minimizedAffinity>
-7.35319

> <CNNscore>
0.4947736859

> <CNNaffinity>
5.4974570274

> <CNN_VS>
2.7199971676

> <CNNaffinity_variance>
0.0279058069

$$$$
