


 16 15  0  0  0  0  0  0  0  0999 V2000
    9.7361   -2.8225   18.4168 C   0  0  0  0  0  0  0  0  0  0  0  0
   11.2044   -3.1987   18.1774 C   0  0  0  0  0  0  0  0  0  0  0  0
   11.4792   -3.6829   16.7506 C   0  0  0  0  0  0  0  0  0  0  0  0
   12.3329   -2.7080   15.9323 C   0  0  0  0  0  0  0  0  0  0  0  0
   13.7634   -3.1992   15.6939 C   0  0  0  0  0  0  0  0  0  0  0  0
   14.6662   -2.0578   15.2171 C   0  0  0  0  0  0  0  0  0  0  0  0
   13.4350   -0.3259   13.8028 C   0  0  0  0  0  0  0  0  0  0  0  0
   13.9599   -0.7009   15.1801 C   0  0  0  0  0  0  0  0  0  0  0  0
    9.2266   -3.2267   19.7996 C   0  0  0  0  0  0  0  0  0  0  0  0
    7.7952   -2.7784   20.1336 C   0  0  0  0  0  0  0  0  0  0  0  0
    7.0688   -3.3487   21.3878 C   0  0  0  0  0  0  0  0  0  0  0  0
    5.6518   -2.7286   21.4251 C   0  0  0  0  0  0  0  0  0  0  0  0
    7.7806   -2.8653   22.6752 C   0  0  0  0  0  0  0  0  0  0  0  0
    6.9866   -4.9021   21.4429 C   0  0  0  0  0  0  0  0  0  0  0  0
    6.9753   -5.6019   22.8099 C   0  0  0  0  0  0  0  0  0  0  0  0
    5.6061   -5.8612   23.4093 C   0  0  0  0  0  0  0  0  0  0  0  0
  7  8  1  0
  8  6  1  0
  6  5  1  0
  5  4  1  0
  4  3  1  0
  3  2  1  0
  2  1  1  0
  1  9  1  0
  9 10  1  0
 10 11  1  0
 11 12  1  0
 11 13  1  0
 11 14  1  0
 14 15  1  0
 15 16  1  0
M  END
> <minimizedAffinity>
-4.99049

> <CNNscore>
0.6852929592

> <CNNaffinity>
4.7618560791

> <CNN_VS>
3.2632663250

> <CNNaffinity_variance>
0.5806789994

$$$$



 16 15  0  0  0  0  0  0  0  0999 V2000
    4.4826   -0.6089   19.5462 C   0  0  0  0  0  0  0  0  0  0  0  0
    5.2361   -1.9385   19.6839 C   0  0  0  0  0  0  0  0  0  0  0  0
    6.6019   -1.9336   18.9909 C   0  0  0  0  0  0  0  0  0  0  0  0
    7.7705   -1.6968   19.9538 C   0  0  0  0  0  0  0  0  0  0  0  0
    9.0755   -1.3151   19.2498 C   0  0  0  0  0  0  0  0  0  0  0  0
    9.8848   -2.5601   18.8755 C   0  0  0  0  0  0  0  0  0  0  0  0
   11.2236   -3.2066   16.8006 C   0  0  0  0  0  0  0  0  0  0  0  0
    9.8564   -2.8745   17.3782 C   0  0  0  0  0  0  0  0  0  0  0  0
    3.5034   -0.3480   20.6899 C   0  0  0  0  0  0  0  0  0  0  0  0
    3.6440    1.0169   21.3821 C   0  0  0  0  0  0  0  0  0  0  0  0
    2.5154    1.5390   22.3199 C   0  0  0  0  0  0  0  0  0  0  0  0
    3.1085    1.6444   23.7451 C   0  0  0  0  0  0  0  0  0  0  0  0
    1.3763    0.4938   22.4075 C   0  0  0  0  0  0  0  0  0  0  0  0
    1.8858    2.8956   21.8888 C   0  0  0  0  0  0  0  0  0  0  0  0
    2.5044    4.2037   22.4035 C   0  0  0  0  0  0  0  0  0  0  0  0
    2.1639    5.4527   21.6127 C   0  0  0  0  0  0  0  0  0  0  0  0
  7  8  1  0
  8  6  1  0
  6  5  1  0
  5  4  1  0
  4  3  1  0
  3  2  1  0
  2  1  1  0
  1  9  1  0
  9 10  1  0
 10 11  1  0
 11 12  1  0
 11 13  1  0
 11 14  1  0
 14 15  1  0
 15 16  1  0
M  END
> <minimizedAffinity>
-5.83293

> <CNNscore>
0.6453304291

> <CNNaffinity>
5.3710074425

> <CNN_VS>
3.4660744667

> <CNNaffinity_variance>
0.4720885456

$$$$



 16 15  0  0  0  0  0  0  0  0999 V2000
    5.3534   -1.7075   20.4219 C   0  0  0  0  0  0  0  0  0  0  0  0
    4.4357   -0.5052   20.6802 C   0  0  0  0  0  0  0  0  0  0  0  0
    3.0246   -0.9057   21.1206 C   0  0  0  0  0  0  0  0  0  0  0  0
    2.5702   -0.2106   22.4088 C   0  0  0  0  0  0  0  0  0  0  0  0
    1.2635   -0.7703   22.9778 C   0  0  0  0  0  0  0  0  0  0  0  0
    1.4784   -1.3613   24.3741 C   0  0  0  0  0  0  0  0  0  0  0  0
   -0.4412   -2.1473   25.8615 C   0  0  0  0  0  0  0  0  0  0  0  0
    0.4980   -2.4858   24.7142 C   0  0  0  0  0  0  0  0  0  0  0  0
    6.5636   -1.7552   21.3537 C   0  0  0  0  0  0  0  0  0  0  0  0
    7.6443   -2.7824   20.9816 C   0  0  0  0  0  0  0  0  0  0  0  0
    7.9086   -4.0095   21.9036 C   0  0  0  0  0  0  0  0  0  0  0  0
    8.2842   -3.4661   23.3026 C   0  0  0  0  0  0  0  0  0  0  0  0
    9.1482   -4.7897   21.4014 C   0  0  0  0  0  0  0  0  0  0  0  0
    6.7234   -5.0132   22.0078 C   0  0  0  0  0  0  0  0  0  0  0  0
    6.5502   -5.8341   23.2942 C   0  0  0  0  0  0  0  0  0  0  0  0
    5.1311   -6.2580   23.6225 C   0  0  0  0  0  0  0  0  0  0  0  0
  7  8  1  0
  8  6  1  0
  6  5  1  0
  5  4  1  0
  4  3  1  0
  3  2  1  0
  2  1  1  0
  1  9  1  0
  9 10  1  0
 10 11  1  0
 11 12  1  0
 11 13  1  0
 11 14  1  0
 14 15  1  0
 15 16  1  0
M  END
> <minimizedAffinity>
-5.31691

> <CNNscore>
0.6171793938

> <CNNaffinity>
6.0761733055

> <CNN_VS>
3.7500889301

> <CNNaffinity_variance>
0.1836703569

$$$$



 16 15  0  0  0  0  0  0  0  0999 V2000
    3.5854   -0.1962   20.0830 C   0  0  0  0  0  0  0  0  0  0  0  0
    3.2812   -0.5565   21.5433 C   0  0  0  0  0  0  0  0  0  0  0  0
    1.8734   -1.1250   21.7447 C   0  0  0  0  0  0  0  0  0  0  0  0
    1.1694   -0.5761   22.9904 C   0  0  0  0  0  0  0  0  0  0  0  0
    1.5566   -1.3020   24.2818 C   0  0  0  0  0  0  0  0  0  0  0  0
    0.5532   -2.4103   24.6135 C   0  0  0  0  0  0  0  0  0  0  0  0
    0.0528   -2.7743   27.0899 C   0  0  0  0  0  0  0  0  0  0  0  0
   -0.3508   -2.0743   25.8015 C   0  0  0  0  0  0  0  0  0  0  0  0
    4.8784   -0.8227   19.5628 C   0  0  0  0  0  0  0  0  0  0  0  0
    5.1606   -2.2539   20.0462 C   0  0  0  0  0  0  0  0  0  0  0  0
    6.5838   -2.6463   20.5423 C   0  0  0  0  0  0  0  0  0  0  0  0
    6.9814   -1.6433   21.6512 C   0  0  0  0  0  0  0  0  0  0  0  0
    7.6126   -2.4520   19.4015 C   0  0  0  0  0  0  0  0  0  0  0  0
    6.7137   -4.1094   21.0575 C   0  0  0  0  0  0  0  0  0  0  0  0
    7.7187   -4.4215   22.1761 C   0  0  0  0  0  0  0  0  0  0  0  0
    9.0217   -5.0611   21.7354 C   0  0  0  0  0  0  0  0  0  0  0  0
  7  8  1  0
  8  6  1  0
  6  5  1  0
  5  4  1  0
  4  3  1  0
  3  2  1  0
  2  1  1  0
  1  9  1  0
  9 10  1  0
 10 11  1  0
 11 12  1  0
 11 13  1  0
 11 14  1  0
 14 15  1  0
 15 16  1  0
M  END
> <minimizedAffinity>
-5.74816

> <CNNscore>
0.6147271395

> <CNNaffinity>
5.8853106499

> <CNN_VS>
3.6178600788

> <CNNaffinity_variance>
0.3197448254

$$$$



 16 15  0  0  0  0  0  0  0  0999 V2000
    4.2370   -0.4980   19.9041 C   0  0  0  0  0  0  0  0  0  0  0  0
    5.3154   -0.6580   18.8243 C   0  0  0  0  0  0  0  0  0  0  0  0
    5.9724   -2.0415   18.8268 C   0  0  0  0  0  0  0  0  0  0  0  0
    5.9733   -2.7109   20.2055 C   0  0  0  0  0  0  0  0  0  0  0  0
    7.3541   -3.2063   20.6441 C   0  0  0  0  0  0  0  0  0  0  0  0
    7.5187   -3.1069   22.1633 C   0  0  0  0  0  0  0  0  0  0  0  0
    7.4935   -5.6498   21.9439 C   0  0  0  0  0  0  0  0  0  0  0  0
    7.7997   -4.4540   22.8324 C   0  0  0  0  0  0  0  0  0  0  0  0
    3.6106    0.8955   19.9307 C   0  0  0  0  0  0  0  0  0  0  0  0
    3.7874    1.6748   21.2434 C   0  0  0  0  0  0  0  0  0  0  0  0
    2.5923    1.8269   22.2305 C   0  0  0  0  0  0  0  0  0  0  0  0
    1.8629    3.1445   21.8760 C   0  0  0  0  0  0  0  0  0  0  0  0
    3.1204    2.0062   23.6750 C   0  0  0  0  0  0  0  0  0  0  0  0
    1.5933    0.6333   22.2327 C   0  0  0  0  0  0  0  0  0  0  0  0
    2.0036   -0.6835   22.9082 C   0  0  0  0  0  0  0  0  0  0  0  0
    1.0122   -1.2527   23.9054 C   0  0  0  0  0  0  0  0  0  0  0  0
  7  8  1  0
  8  6  1  0
  6  5  1  0
  5  4  1  0
  4  3  1  0
  3  2  1  0
  2  1  1  0
  1  9  1  0
  9 10  1  0
 10 11  1  0
 11 12  1  0
 11 13  1  0
 11 14  1  0
 14 15  1  0
 15 16  1  0
M  END
> <minimizedAffinity>
-5.38246

> <CNNscore>
0.6066607237

> <CNNaffinity>
5.8496966362

> <CNN_VS>
3.5487811565

> <CNNaffinity_variance>
0.1562094092

$$$$



 16 15  0  0  0  0  0  0  0  0999 V2000
    6.1743   -1.2737   20.6709 C   0  0  0  0  0  0  0  0  0  0  0  0
    4.9396   -0.6220   21.3075 C   0  0  0  0  0  0  0  0  0  0  0  0
    4.0995    0.1825   20.3112 C   0  0  0  0  0  0  0  0  0  0  0  0
    3.4319    1.4132   20.9344 C   0  0  0  0  0  0  0  0  0  0  0  0
    3.7736    1.6113   22.4137 C   0  0  0  0  0  0  0  0  0  0  0  0
    3.1170    2.8796   22.9664 C   0  0  0  0  0  0  0  0  0  0  0  0
    2.1228    5.0654   22.1009 C   0  0  0  0  0  0  0  0  0  0  0  0
    2.1636    3.5503   21.9751 C   0  0  0  0  0  0  0  0  0  0  0  0
    6.9909   -2.1105   21.6547 C   0  0  0  0  0  0  0  0  0  0  0  0
    7.6275   -3.3819   21.0716 C   0  0  0  0  0  0  0  0  0  0  0  0
    8.1894   -4.4819   22.0203 C   0  0  0  0  0  0  0  0  0  0  0  0
    8.5029   -3.8081   23.3773 C   0  0  0  0  0  0  0  0  0  0  0  0
    9.5432   -5.0039   21.4796 C   0  0  0  0  0  0  0  0  0  0  0  0
    7.2522   -5.7080   22.2231 C   0  0  0  0  0  0  0  0  0  0  0  0
    5.9867   -5.5480   23.0784 C   0  0  0  0  0  0  0  0  0  0  0  0
    5.8601   -6.4953   24.2564 C   0  0  0  0  0  0  0  0  0  0  0  0
  7  8  1  0
  8  6  1  0
  6  5  1  0
  5  4  1  0
  4  3  1  0
  3  2  1  0
  2  1  1  0
  1  9  1  0
  9 10  1  0
 10 11  1  0
 11 12  1  0
 11 13  1  0
 11 14  1  0
 14 15  1  0
 15 16  1  0
M  END
> <minimizedAffinity>
-5.38767

> <CNNscore>
0.6028878093

> <CNNaffinity>
5.7010097504

> <CNN_VS>
3.4370691776

> <CNNaffinity_variance>
0.1814645976

$$$$



 16 15  0  0  0  0  0  0  0  0999 V2000
    5.3049   -2.0847   19.4529 C   0  0  0  0  0  0  0  0  0  0  0  0
    5.9204   -2.9662   20.5478 C   0  0  0  0  0  0  0  0  0  0  0  0
    7.4498   -2.8976   20.5902 C   0  0  0  0  0  0  0  0  0  0  0  0
    8.0483   -2.0065   19.4963 C   0  0  0  0  0  0  0  0  0  0  0  0
    9.2179   -2.6549   18.7509 C   0  0  0  0  0  0  0  0  0  0  0  0
   10.2667   -1.6113   18.3558 C   0  0  0  0  0  0  0  0  0  0  0  0
   11.4925   -3.0623   16.6507 C   0  0  0  0  0  0  0  0  0  0  0  0
   10.7551   -1.7582   16.9132 C   0  0  0  0  0  0  0  0  0  0  0  0
    4.3321   -1.0386   19.9952 C   0  0  0  0  0  0  0  0  0  0  0  0
    3.9003   -1.2325   21.4573 C   0  0  0  0  0  0  0  0  0  0  0  0
    2.3938   -1.1568   21.8453 C   0  0  0  0  0  0  0  0  0  0  0  0
    1.5714   -1.5048   20.5818 C   0  0  0  0  0  0  0  0  0  0  0  0
    2.0161    0.2991   22.2133 C   0  0  0  0  0  0  0  0  0  0  0  0
    1.9807   -2.0718   23.0347 C   0  0  0  0  0  0  0  0  0  0  0  0
    0.9636   -1.5505   24.0606 C   0  0  0  0  0  0  0  0  0  0  0  0
    1.0895   -2.1152   25.4629 C   0  0  0  0  0  0  0  0  0  0  0  0
  7  8  1  0
  8  6  1  0
  6  5  1  0
  5  4  1  0
  4  3  1  0
  3  2  1  0
  2  1  1  0
  1  9  1  0
  9 10  1  0
 10 11  1  0
 11 12  1  0
 11 13  1  0
 11 14  1  0
 14 15  1  0
 15 16  1  0
M  END
> <minimizedAffinity>
-5.29630

> <CNNscore>
0.5887597203

> <CNNaffinity>
5.5254263878

> <CNN_VS>
3.2531485558

> <CNNaffinity_variance>
0.0749360621

$$$$



 16 15  0  0  0  0  0  0  0  0999 V2000
    4.0098   -0.3130   19.3138 C   0  0  0  0  0  0  0  0  0  0  0  0
    4.4977   -1.7117   18.9138 C   0  0  0  0  0  0  0  0  0  0  0  0
    6.0241   -1.8364   18.8935 C   0  0  0  0  0  0  0  0  0  0  0  0
    6.6993   -1.2310   20.1290 C   0  0  0  0  0  0  0  0  0  0  0  0
    8.1694   -1.6310   20.2805 C   0  0  0  0  0  0  0  0  0  0  0  0
    8.3179   -3.1504   20.4010 C   0  0  0  0  0  0  0  0  0  0  0  0
    8.0997   -3.1700   22.9441 C   0  0  0  0  0  0  0  0  0  0  0  0
    7.6040   -3.7347   21.6218 C   0  0  0  0  0  0  0  0  0  0  0  0
    3.6935   -0.1865   20.8034 C   0  0  0  0  0  0  0  0  0  0  0  0
    3.5939    1.2508   21.3383 C   0  0  0  0  0  0  0  0  0  0  0  0
    2.4408    1.6474   22.3071 C   0  0  0  0  0  0  0  0  0  0  0  0
    3.0649    1.8671   23.7057 C   0  0  0  0  0  0  0  0  0  0  0  0
    1.4514    0.4663   22.4615 C   0  0  0  0  0  0  0  0  0  0  0  0
    1.6248    2.8990   21.8707 C   0  0  0  0  0  0  0  0  0  0  0  0
    2.3742    4.1851   21.4924 C   0  0  0  0  0  0  0  0  0  0  0  0
    2.2560    5.3336   22.4764 C   0  0  0  0  0  0  0  0  0  0  0  0
  7  8  1  0
  8  6  1  0
  6  5  1  0
  5  4  1  0
  4  3  1  0
  3  2  1  0
  2  1  1  0
  1  9  1  0
  9 10  1  0
 10 11  1  0
 11 12  1  0
 11 13  1  0
 11 14  1  0
 14 15  1  0
 15 16  1  0
M  END
> <minimizedAffinity>
-5.47139

> <CNNscore>
0.5766108632

> <CNNaffinity>
5.6384902000

> <CNN_VS>
3.2512147427

> <CNNaffinity_variance>
0.3414053023

$$$$



 16 15  0  0  0  0  0  0  0  0999 V2000
    8.5657   -2.6876   20.1641 C   0  0  0  0  0  0  0  0  0  0  0  0
    9.7936   -3.3266   19.5019 C   0  0  0  0  0  0  0  0  0  0  0  0
   10.1908   -2.6509   18.1862 C   0  0  0  0  0  0  0  0  0  0  0  0
   10.9907   -3.5649   17.2514 C   0  0  0  0  0  0  0  0  0  0  0  0
   11.8615   -2.8031   16.2486 C   0  0  0  0  0  0  0  0  0  0  0  0
   11.2575   -1.4343   15.9219 C   0  0  0  0  0  0  0  0  0  0  0  0
   13.5571   -0.7644   15.0398 C   0  0  0  0  0  0  0  0  0  0  0  0
   12.0498   -0.6577   14.8681 C   0  0  0  0  0  0  0  0  0  0  0  0
    7.4596   -2.3332   19.1712 C   0  0  0  0  0  0  0  0  0  0  0  0
    6.0503   -2.8125   19.5529 C   0  0  0  0  0  0  0  0  0  0  0  0
    4.8751   -1.7945   19.6443 C   0  0  0  0  0  0  0  0  0  0  0  0
    3.7338   -2.3214   18.7424 C   0  0  0  0  0  0  0  0  0  0  0  0
    5.3055   -0.4359   19.0389 C   0  0  0  0  0  0  0  0  0  0  0  0
    4.3532   -1.5299   21.0867 C   0  0  0  0  0  0  0  0  0  0  0  0
    3.2644   -0.4688   21.3046 C   0  0  0  0  0  0  0  0  0  0  0  0
    1.9171   -0.9889   21.7688 C   0  0  0  0  0  0  0  0  0  0  0  0
  7  8  1  0
  8  6  1  0
  6  5  1  0
  5  4  1  0
  4  3  1  0
  3  2  1  0
  2  1  1  0
  1  9  1  0
  9 10  1  0
 10 11  1  0
 11 12  1  0
 11 13  1  0
 11 14  1  0
 14 15  1  0
 15 16  1  0
M  END
> <minimizedAffinity>
-5.48447

> <CNNscore>
0.5618920922

> <CNNaffinity>
5.2981109619

> <CNN_VS>
2.9769666195

> <CNNaffinity_variance>
0.1337191015

$$$$
