


 36 38  0  0  0  0  0  0  0  0999 V2000
   37.0533   -2.5537   -8.3863 C   0  0  0  0  0  0  0  0  0  0  0  0
   38.1485   -3.6942   -6.0353 O   0  0  0  0  0  0  0  0  0  0  0  0
   37.4544   -4.3798   -6.7768 C   0  0  0  0  0  0  0  0  0  0  0  0
   36.9569   -3.9299   -7.9754 N   0  0  0  0  0  0  0  0  0  0  0  0
   36.5173   -4.5735   -8.5768 H   0  0  0  0  0  0  0  0  0  0  0  0
   37.1036   -5.7775   -6.3765 C   0  0  0  0  0  0  0  0  0  0  0  0
   38.0032   -6.4513   -5.5300 C   0  0  0  0  0  0  0  0  0  0  0  0
   37.7313   -7.7621   -5.1057 C   0  0  0  0  0  0  0  0  0  0  0  0
   36.5570   -8.4176   -5.4989 C   0  0  0  0  0  0  0  0  0  0  0  0
   35.6728   -7.7453   -6.3309 C   0  0  0  0  0  0  0  0  0  0  0  0
   34.5014   -8.3140   -6.7540 O   0  0  0  0  0  0  0  0  0  0  0  0
   35.9401   -6.4440   -6.7765 C   0  0  0  0  0  0  0  0  0  0  0  0
   35.0084   -5.8648   -7.6041 O   0  0  0  0  0  0  0  0  0  0  0  0
   34.2776   -9.1826   -6.4831 H   0  0  0  0  0  0  0  0  0  0  0  0
   34.2405   -6.3415   -7.8513 H   0  0  0  0  0  0  0  0  0  0  0  0
   38.6901   -8.4598   -4.2387 N   0  0  0  0  0  0  0  0  0  0  0  0
   38.2740   -9.4123   -3.5660 O   0  0  0  0  0  0  0  0  0  0  0  0
   39.8592   -8.0476   -4.2304 O   0  0  0  0  0  0  0  0  0  0  0  0
   36.9201   -2.5362   -9.8759 C   0  0  0  0  0  0  0  0  0  0  0  0
   35.7466   -2.5424  -10.5336 C   0  0  0  0  0  0  0  0  0  0  0  0
   35.5747   -2.6230  -12.0310 C   0  0  0  0  0  0  0  0  0  0  0  0
   34.5680   -1.6679  -12.4521 O   0  0  0  0  0  0  0  0  0  0  0  0
   35.1936   -0.7461  -13.3594 C   0  0  0  0  0  0  0  0  0  0  0  0
   36.7015   -0.8023  -13.0753 C   0  0  0  0  0  0  0  0  0  0  0  0
   37.5217   -0.3802  -14.1686 O   0  0  0  0  0  0  0  0  0  0  0  0
   36.8686   -2.2821  -12.7933 C   0  0  0  0  0  0  0  0  0  0  0  0
   36.9287   -2.9989  -14.0387 O   0  0  0  0  0  0  0  0  0  0  0  0
   37.3249   -0.9223  -14.9485 H   0  0  0  0  0  0  0  0  0  0  0  0
   36.1389   -2.7990  -14.5652 H   0  0  0  0  0  0  0  0  0  0  0  0
   34.6665    0.6313  -13.2013 N   0  0  0  0  0  0  0  0  0  0  0  0
   33.6403    1.0977  -14.0176 C   0  0  0  0  0  0  0  0  0  0  0  0
   33.1027    2.3232  -13.9374 C   0  0  0  0  0  0  0  0  0  0  0  0
   33.6452    3.2542  -12.9185 C   0  0  0  0  0  0  0  0  0  0  0  0
   33.2354    4.4028  -12.8161 O   0  0  0  0  0  0  0  0  0  0  0  0
   34.7170    2.7491  -12.0339 C   0  0  0  0  0  0  0  0  0  0  0  0
   35.1559    1.4989  -12.2267 C   0  0  0  0  0  0  0  0  0  0  0  0
  2  3  2  0
  3  4  1  0
  4  1  1  0
  1 19  1  0
 19 20  2  0
 21 20  1  0
 21 22  1  0
 22 23  1  0
 23 30  1  0
 30 31  1  0
 31 32  2  0
 32 33  1  0
 33 34  2  0
 33 35  1  0
 35 36  2  0
 23 24  1  0
 24 25  1  0
 24 26  1  0
 26 27  1  0
  3  6  1  0
  6  7  2  0
  7  8  1  0
  8 16  1  0
 16 17  2  0
 16 18  1  0
  8  9  2  0
  9 10  1  0
 10 11  1  0
 10 12  2  0
 12 13  1  0
 26 21  1  0
 12  6  1  0
 36 30  1  0
  4  5  1  0
 25 28  1  0
 27 29  1  0
 11 14  1  0
 13 15  1  0
M  CHG 1  16   1
M  CHG 1  18  -1
M  END
> <minimizedAffinity>
-11.21087

> <CNNscore>
0.9777466059

> <CNNaffinity>
6.9838957787

> <CNN_VS>
6.8284802437

> <CNNaffinity_variance>
0.3093133569

$$$$



 36 38  0  0  0  0  0  0  0  0999 V2000
   33.9075   -5.5968  -10.4745 C   0  0  0  0  0  0  0  0  0  0  0  0
   35.1890   -4.1152   -8.4277 O   0  0  0  0  0  0  0  0  0  0  0  0
   35.2791   -5.3372   -8.4405 C   0  0  0  0  0  0  0  0  0  0  0  0
   34.7610   -6.1223   -9.4415 N   0  0  0  0  0  0  0  0  0  0  0  0
   34.9820   -7.0816   -9.4527 H   0  0  0  0  0  0  0  0  0  0  0  0
   35.9716   -6.0385   -7.3157 C   0  0  0  0  0  0  0  0  0  0  0  0
   37.1080   -5.4147   -6.7685 C   0  0  0  0  0  0  0  0  0  0  0  0
   37.8006   -6.0118   -5.7027 C   0  0  0  0  0  0  0  0  0  0  0  0
   37.3680   -7.2255   -5.1522 C   0  0  0  0  0  0  0  0  0  0  0  0
   36.2443   -7.8329   -5.6947 C   0  0  0  0  0  0  0  0  0  0  0  0
   35.7545   -9.0157   -5.2093 O   0  0  0  0  0  0  0  0  0  0  0  0
   35.5542   -7.2575   -6.7699 C   0  0  0  0  0  0  0  0  0  0  0  0
   34.4583   -7.9383   -7.2434 O   0  0  0  0  0  0  0  0  0  0  0  0
   36.1811   -9.4399   -4.4909 H   0  0  0  0  0  0  0  0  0  0  0  0
   34.2081   -8.7525   -6.8531 H   0  0  0  0  0  0  0  0  0  0  0  0
   38.9973   -5.3585   -5.1557 N   0  0  0  0  0  0  0  0  0  0  0  0
   38.9064   -4.1684   -4.8267 O   0  0  0  0  0  0  0  0  0  0  0  0
   40.0286   -6.0398   -5.0615 O   0  0  0  0  0  0  0  0  0  0  0  0
   34.8034   -5.0717  -11.5510 C   0  0  0  0  0  0  0  0  0  0  0  0
   34.7656   -3.8127  -12.0236 C   0  0  0  0  0  0  0  0  0  0  0  0
   35.5849   -3.2764  -13.1721 C   0  0  0  0  0  0  0  0  0  0  0  0
   34.9247   -2.1133  -13.7327 O   0  0  0  0  0  0  0  0  0  0  0  0
   35.8189   -0.9968  -13.5980 C   0  0  0  0  0  0  0  0  0  0  0  0
   36.8000   -1.3508  -12.4713 C   0  0  0  0  0  0  0  0  0  0  0  0
   38.0407   -0.6411  -12.5277 O   0  0  0  0  0  0  0  0  0  0  0  0
   36.9930   -2.8307  -12.7357 C   0  0  0  0  0  0  0  0  0  0  0  0
   37.9356   -3.0023  -13.8083 O   0  0  0  0  0  0  0  0  0  0  0  0
   38.4676   -0.8037  -13.3834 H   0  0  0  0  0  0  0  0  0  0  0  0
   37.6303   -2.5133  -14.5885 H   0  0  0  0  0  0  0  0  0  0  0  0
   35.0926    0.2627  -13.3042 N   0  0  0  0  0  0  0  0  0  0  0  0
   35.4691    1.0669  -12.2324 C   0  0  0  0  0  0  0  0  0  0  0  0
   34.8723    2.2210  -11.9018 C   0  0  0  0  0  0  0  0  0  0  0  0
   33.7225    2.6688  -12.7244 C   0  0  0  0  0  0  0  0  0  0  0  0
   33.1005    3.6881  -12.4564 O   0  0  0  0  0  0  0  0  0  0  0  0
   33.3401    1.8276  -13.8787 C   0  0  0  0  0  0  0  0  0  0  0  0
   34.0291    0.6995  -14.0918 C   0  0  0  0  0  0  0  0  0  0  0  0
  2  3  2  0
  3  4  1  0
  4  1  1  0
  1 19  1  0
 19 20  2  0
 21 20  1  0
 21 22  1  0
 22 23  1  0
 23 30  1  0
 30 31  1  0
 31 32  2  0
 32 33  1  0
 33 34  2  0
 33 35  1  0
 35 36  2  0
 23 24  1  0
 24 25  1  0
 24 26  1  0
 26 27  1  0
  3  6  1  0
  6  7  2  0
  7  8  1  0
  8 16  1  0
 16 17  2  0
 16 18  1  0
  8  9  2  0
  9 10  1  0
 10 11  1  0
 10 12  2  0
 12 13  1  0
 26 21  1  0
 12  6  1  0
 36 30  1  0
  4  5  1  0
 25 28  1  0
 27 29  1  0
 11 14  1  0
 13 15  1  0
M  CHG 1  16   1
M  CHG 1  18  -1
M  END
> <minimizedAffinity>
-9.66211

> <CNNscore>
0.9134728909

> <CNNaffinity>
6.7665486336

> <CNN_VS>
6.1810588837

> <CNNaffinity_variance>
0.0170318708

$$$$



 36 38  0  0  0  0  0  0  0  0999 V2000
   38.2491   -1.9053   -6.1019 C   0  0  0  0  0  0  0  0  0  0  0  0
   36.9297   -3.7905   -7.7549 O   0  0  0  0  0  0  0  0  0  0  0  0
   37.3563   -4.1364   -6.6595 C   0  0  0  0  0  0  0  0  0  0  0  0
   37.9308   -3.2677   -5.7639 N   0  0  0  0  0  0  0  0  0  0  0  0
   38.1326   -3.5894   -4.8556 H   0  0  0  0  0  0  0  0  0  0  0  0
   37.2731   -5.5738   -6.2548 C   0  0  0  0  0  0  0  0  0  0  0  0
   38.3668   -6.1103   -5.5506 C   0  0  0  0  0  0  0  0  0  0  0  0
   38.3510   -7.4501   -5.1300 C   0  0  0  0  0  0  0  0  0  0  0  0
   37.2457   -8.2724   -5.3851 C   0  0  0  0  0  0  0  0  0  0  0  0
   36.1692   -7.7352   -6.0770 C   0  0  0  0  0  0  0  0  0  0  0  0
   35.0497   -8.4710   -6.3598 O   0  0  0  0  0  0  0  0  0  0  0  0
   36.1789   -6.4053   -6.5184 C   0  0  0  0  0  0  0  0  0  0  0  0
   35.0703   -5.9674   -7.2023 O   0  0  0  0  0  0  0  0  0  0  0  0
   34.9952   -9.3653   -6.0856 H   0  0  0  0  0  0  0  0  0  0  0  0
   34.3559   -6.5527   -7.3606 H   0  0  0  0  0  0  0  0  0  0  0  0
   39.5091   -8.0013   -4.4137 N   0  0  0  0  0  0  0  0  0  0  0  0
   39.3092   -8.9316   -3.6214 O   0  0  0  0  0  0  0  0  0  0  0  0
   40.6176   -7.4964   -4.6437 O   0  0  0  0  0  0  0  0  0  0  0  0
   39.7343   -1.7673   -5.9912 C   0  0  0  0  0  0  0  0  0  0  0  0
   40.3610   -0.6952   -5.4740 C   0  0  0  0  0  0  0  0  0  0  0  0
   41.8544   -0.4798   -5.4349 C   0  0  0  0  0  0  0  0  0  0  0  0
   42.2699    0.2299   -6.6294 O   0  0  0  0  0  0  0  0  0  0  0  0
   42.8684    1.4685   -6.2149 C   0  0  0  0  0  0  0  0  0  0  0  0
   42.3330    1.7680   -4.8074 C   0  0  0  0  0  0  0  0  0  0  0  0
   43.1666    2.6355   -4.0337 O   0  0  0  0  0  0  0  0  0  0  0  0
   42.2976    0.3679   -4.2280 C   0  0  0  0  0  0  0  0  0  0  0  0
   43.6206   -0.0040   -3.8040 O   0  0  0  0  0  0  0  0  0  0  0  0
   44.0541    2.2509   -3.9608 H   0  0  0  0  0  0  0  0  0  0  0  0
   44.2355    0.0837   -4.5491 H   0  0  0  0  0  0  0  0  0  0  0  0
   42.5614    2.5743   -7.1547 N   0  0  0  0  0  0  0  0  0  0  0  0
   43.4477    3.6348   -7.3185 C   0  0  0  0  0  0  0  0  0  0  0  0
   43.2511    4.6683   -8.1494 C   0  0  0  0  0  0  0  0  0  0  0  0
   41.9972    4.6942   -8.9410 C   0  0  0  0  0  0  0  0  0  0  0  0
   41.7283    5.6268   -9.6863 O   0  0  0  0  0  0  0  0  0  0  0  0
   41.0686    3.5539   -8.7864 C   0  0  0  0  0  0  0  0  0  0  0  0
   41.3967    2.5874   -7.9199 C   0  0  0  0  0  0  0  0  0  0  0  0
  2  3  2  0
  3  4  1  0
  4  1  1  0
  1 19  1  0
 19 20  2  0
 21 20  1  0
 21 22  1  0
 22 23  1  0
 23 30  1  0
 30 31  1  0
 31 32  2  0
 32 33  1  0
 33 34  2  0
 33 35  1  0
 35 36  2  0
 23 24  1  0
 24 25  1  0
 24 26  1  0
 26 27  1  0
  3  6  1  0
  6  7  2  0
  7  8  1  0
  8 16  1  0
 16 17  2  0
 16 18  1  0
  8  9  2  0
  9 10  1  0
 10 11  1  0
 10 12  2  0
 12 13  1  0
 26 21  1  0
 12  6  1  0
 36 30  1  0
  4  5  1  0
 25 28  1  0
 27 29  1  0
 11 14  1  0
 13 15  1  0
M  CHG 1  16   1
M  CHG 1  18  -1
M  END
> <minimizedAffinity>
-5.96451

> <CNNscore>
0.6701304317

> <CNNaffinity>
5.5919075012

> <CNN_VS>
3.7473073006

> <CNNaffinity_variance>
0.1308497787

$$$$



 36 38  0  0  0  0  0  0  0  0999 V2000
   39.1232   -2.5496   -7.4378 C   0  0  0  0  0  0  0  0  0  0  0  0
   36.4803   -3.5690   -7.4928 O   0  0  0  0  0  0  0  0  0  0  0  0
   37.3811   -4.2420   -7.0058 C   0  0  0  0  0  0  0  0  0  0  0  0
   38.6700   -3.7891   -6.8633 N   0  0  0  0  0  0  0  0  0  0  0  0
   39.3086   -4.3334   -6.3483 H   0  0  0  0  0  0  0  0  0  0  0  0
   37.0955   -5.6363   -6.5463 C   0  0  0  0  0  0  0  0  0  0  0  0
   38.0531   -6.2520   -5.7193 C   0  0  0  0  0  0  0  0  0  0  0  0
   37.8443   -7.5561   -5.2420 C   0  0  0  0  0  0  0  0  0  0  0  0
   36.6772   -8.2623   -5.5620 C   0  0  0  0  0  0  0  0  0  0  0  0
   35.7357   -7.6471   -6.3752 C   0  0  0  0  0  0  0  0  0  0  0  0
   34.5672   -8.2673   -6.7280 O   0  0  0  0  0  0  0  0  0  0  0  0
   35.9392   -6.3533   -6.8732 C   0  0  0  0  0  0  0  0  0  0  0  0
   34.9536   -5.8325   -7.6770 O   0  0  0  0  0  0  0  0  0  0  0  0
   34.3849   -9.1333   -6.4200 H   0  0  0  0  0  0  0  0  0  0  0  0
   34.1925   -6.3419   -7.8748 H   0  0  0  0  0  0  0  0  0  0  0  0
   38.8627   -8.1930   -4.3963 N   0  0  0  0  0  0  0  0  0  0  0  0
   40.0216   -7.7626   -4.4641 O   0  0  0  0  0  0  0  0  0  0  0  0
   38.4989   -9.1281   -3.6684 O   0  0  0  0  0  0  0  0  0  0  0  0
   40.3008   -2.8769   -8.3000 C   0  0  0  0  0  0  0  0  0  0  0  0
   40.6744   -2.1641   -9.3780 C   0  0  0  0  0  0  0  0  0  0  0  0
   41.7950   -2.5184  -10.3250 C   0  0  0  0  0  0  0  0  0  0  0  0
   42.7626   -3.3505   -9.6362 O   0  0  0  0  0  0  0  0  0  0  0  0
   42.8294   -4.6071  -10.3295 C   0  0  0  0  0  0  0  0  0  0  0  0
   41.5161   -4.7496  -11.1121 C   0  0  0  0  0  0  0  0  0  0  0  0
   41.5933   -5.6340  -12.2337 O   0  0  0  0  0  0  0  0  0  0  0  0
   41.3046   -3.3138  -11.5492 C   0  0  0  0  0  0  0  0  0  0  0  0
   42.1282   -3.0405  -12.6961 O   0  0  0  0  0  0  0  0  0  0  0  0
   42.2910   -5.3320  -12.8362 H   0  0  0  0  0  0  0  0  0  0  0  0
   43.0534   -3.2412  -12.4850 H   0  0  0  0  0  0  0  0  0  0  0  0
   43.0277   -5.7442   -9.3981 N   0  0  0  0  0  0  0  0  0  0  0  0
   43.1005   -7.0496   -9.8752 C   0  0  0  0  0  0  0  0  0  0  0  0
   43.2842   -8.1313   -9.1048 C   0  0  0  0  0  0  0  0  0  0  0  0
   43.4053   -7.9287   -7.6407 C   0  0  0  0  0  0  0  0  0  0  0  0
   43.5297   -8.8718   -6.8708 O   0  0  0  0  0  0  0  0  0  0  0  0
   43.3546   -6.5394   -7.1372 C   0  0  0  0  0  0  0  0  0  0  0  0
   43.1690   -5.5542   -8.0247 C   0  0  0  0  0  0  0  0  0  0  0  0
  2  3  2  0
  3  4  1  0
  4  1  1  0
  1 19  1  0
 19 20  2  0
 21 20  1  0
 21 22  1  0
 22 23  1  0
 23 30  1  0
 30 31  1  0
 31 32  2  0
 32 33  1  0
 33 34  2  0
 33 35  1  0
 35 36  2  0
 23 24  1  0
 24 25  1  0
 24 26  1  0
 26 27  1  0
  3  6  1  0
  6  7  2  0
  7  8  1  0
  8 16  1  0
 16 17  2  0
 16 18  1  0
  8  9  2  0
  9 10  1  0
 10 11  1  0
 10 12  2  0
 12 13  1  0
 26 21  1  0
 12  6  1  0
 36 30  1  0
  4  5  1  0
 25 28  1  0
 27 29  1  0
 11 14  1  0
 13 15  1  0
M  CHG 1  16   1
M  CHG 1  18  -1
M  END
> <minimizedAffinity>
-6.61934

> <CNNscore>
0.6230561733

> <CNNaffinity>
5.7752456665

> <CNN_VS>
3.5983023643

> <CNNaffinity_variance>
0.1433934569

$$$$



 36 38  0  0  0  0  0  0  0  0999 V2000
   36.6940   -2.6022   -8.0034 C   0  0  0  0  0  0  0  0  0  0  0  0
   38.1784   -2.7319   -5.5936 O   0  0  0  0  0  0  0  0  0  0  0  0
   38.0073   -3.7477   -6.2572 C   0  0  0  0  0  0  0  0  0  0  0  0
   37.3745   -3.7559   -7.4763 N   0  0  0  0  0  0  0  0  0  0  0  0
   37.3869   -4.5830   -8.0102 H   0  0  0  0  0  0  0  0  0  0  0  0
   38.4895   -5.0626   -5.7324 C   0  0  0  0  0  0  0  0  0  0  0  0
   37.5507   -6.1074   -5.6486 C   0  0  0  0  0  0  0  0  0  0  0  0
   37.9372   -7.3718   -5.1755 C   0  0  0  0  0  0  0  0  0  0  0  0
   39.2619   -7.6248   -4.7953 C   0  0  0  0  0  0  0  0  0  0  0  0
   40.1830   -6.5905   -4.8841 C   0  0  0  0  0  0  0  0  0  0  0  0
   41.4970   -6.7587   -4.5383 O   0  0  0  0  0  0  0  0  0  0  0  0
   39.8071   -5.3189   -5.3373 C   0  0  0  0  0  0  0  0  0  0  0  0
   40.7884   -4.3578   -5.3820 O   0  0  0  0  0  0  0  0  0  0  0  0
   41.7973   -7.5909   -4.2294 H   0  0  0  0  0  0  0  0  0  0  0  0
   41.6604   -4.5656   -5.1093 H   0  0  0  0  0  0  0  0  0  0  0  0
   36.9409   -8.4466   -5.0745 N   0  0  0  0  0  0  0  0  0  0  0  0
   37.2816   -9.5001   -4.5204 O   0  0  0  0  0  0  0  0  0  0  0  0
   35.8187   -8.2336   -5.5560 O   0  0  0  0  0  0  0  0  0  0  0  0
   36.2965   -2.9372   -9.4058 C   0  0  0  0  0  0  0  0  0  0  0  0
   36.5832   -2.1776  -10.4785 C   0  0  0  0  0  0  0  0  0  0  0  0
   36.1164   -2.4333  -11.8909 C   0  0  0  0  0  0  0  0  0  0  0  0
   34.9710   -1.5917  -12.1791 O   0  0  0  0  0  0  0  0  0  0  0  0
   35.3217   -0.7406  -13.2822 C   0  0  0  0  0  0  0  0  0  0  0  0
   36.8553   -0.6757  -13.3194 C   0  0  0  0  0  0  0  0  0  0  0  0
   37.3982   -0.3293  -14.5966 O   0  0  0  0  0  0  0  0  0  0  0  0
   37.1956   -2.1028  -12.9386 C   0  0  0  0  0  0  0  0  0  0  0  0
   37.0580   -2.9480  -14.0941 O   0  0  0  0  0  0  0  0  0  0  0  0
   37.0909   -0.9650  -15.2617 H   0  0  0  0  0  0  0  0  0  0  0  0
   36.1638   -2.8547  -14.4583 H   0  0  0  0  0  0  0  0  0  0  0  0
   34.7282    0.6122  -13.1489 N   0  0  0  0  0  0  0  0  0  0  0  0
   35.1890    1.4983  -12.1796 C   0  0  0  0  0  0  0  0  0  0  0  0
   34.7139    2.7384  -11.9960 C   0  0  0  0  0  0  0  0  0  0  0  0
   33.6117    3.1972  -12.8759 C   0  0  0  0  0  0  0  0  0  0  0  0
   33.0976    4.2991  -12.7384 O   0  0  0  0  0  0  0  0  0  0  0  0
   33.1410    2.2652  -13.9229 C   0  0  0  0  0  0  0  0  0  0  0  0
   33.7111    1.0557  -13.9922 C   0  0  0  0  0  0  0  0  0  0  0  0
  2  3  2  0
  3  4  1  0
  4  1  1  0
  1 19  1  0
 19 20  2  0
 21 20  1  0
 21 22  1  0
 22 23  1  0
 23 30  1  0
 30 31  1  0
 31 32  2  0
 32 33  1  0
 33 34  2  0
 33 35  1  0
 35 36  2  0
 23 24  1  0
 24 25  1  0
 24 26  1  0
 26 27  1  0
  3  6  1  0
  6  7  2  0
  7  8  1  0
  8 16  1  0
 16 17  2  0
 16 18  1  0
  8  9  2  0
  9 10  1  0
 10 11  1  0
 10 12  2  0
 12 13  1  0
 26 21  1  0
 12  6  1  0
 36 30  1  0
  4  5  1  0
 25 28  1  0
 27 29  1  0
 11 14  1  0
 13 15  1  0
M  CHG 1  16   1
M  CHG 1  18  -1
M  END
> <minimizedAffinity>
-9.86144

> <CNNscore>
0.6055926085

> <CNNaffinity>
6.3928027153

> <CNN_VS>
3.8714339733

> <CNNaffinity_variance>
0.1529605538

$$$$



 36 38  0  0  0  0  0  0  0  0999 V2000
   38.9492   -2.4473   -7.3404 C   0  0  0  0  0  0  0  0  0  0  0  0
   36.5626   -3.9631   -7.1577 O   0  0  0  0  0  0  0  0  0  0  0  0
   37.5997   -4.4023   -6.6751 C   0  0  0  0  0  0  0  0  0  0  0  0
   38.7775   -3.6962   -6.6457 N   0  0  0  0  0  0  0  0  0  0  0  0
   39.5335   -4.0583   -6.1294 H   0  0  0  0  0  0  0  0  0  0  0  0
   37.6179   -5.7798   -6.0929 C   0  0  0  0  0  0  0  0  0  0  0  0
   38.8099   -6.2046   -5.4776 C   0  0  0  0  0  0  0  0  0  0  0  0
   38.8938   -7.4820   -4.9002 C   0  0  0  0  0  0  0  0  0  0  0  0
   37.7939   -8.3499   -4.9083 C   0  0  0  0  0  0  0  0  0  0  0  0
   36.6205   -7.9226   -5.5138 C   0  0  0  0  0  0  0  0  0  0  0  0
   35.5001   -8.7084   -5.5578 O   0  0  0  0  0  0  0  0  0  0  0  0
   36.5284   -6.6577   -6.1097 C   0  0  0  0  0  0  0  0  0  0  0  0
   35.3276   -6.3285   -6.6912 O   0  0  0  0  0  0  0  0  0  0  0  0
   35.5116   -9.5627   -5.1731 H   0  0  0  0  0  0  0  0  0  0  0  0
   34.6194   -6.9420   -6.6834 H   0  0  0  0  0  0  0  0  0  0  0  0
   40.1516   -7.9187   -4.2796 N   0  0  0  0  0  0  0  0  0  0  0  0
   41.1532   -8.0047   -5.0024 O   0  0  0  0  0  0  0  0  0  0  0  0
   40.1315   -8.1795   -3.0679 O   0  0  0  0  0  0  0  0  0  0  0  0
   38.7714   -2.7344   -8.7975 C   0  0  0  0  0  0  0  0  0  0  0  0
   39.7188   -2.5364   -9.7318 C   0  0  0  0  0  0  0  0  0  0  0  0
   39.5437   -2.7222  -11.2194 C   0  0  0  0  0  0  0  0  0  0  0  0
   39.5794   -1.4285  -11.8737 O   0  0  0  0  0  0  0  0  0  0  0  0
   40.6828   -1.4353  -12.7938 C   0  0  0  0  0  0  0  0  0  0  0  0
   41.6504   -2.5267  -12.3143 C   0  0  0  0  0  0  0  0  0  0  0  0
   42.5128   -3.0374  -13.3349 O   0  0  0  0  0  0  0  0  0  0  0  0
   40.6630   -3.5760  -11.8439 C   0  0  0  0  0  0  0  0  0  0  0  0
   40.1704   -4.3075  -12.9800 O   0  0  0  0  0  0  0  0  0  0  0  0
   41.9783   -3.3855  -14.0656 H   0  0  0  0  0  0  0  0  0  0  0  0
   39.7902   -3.6887  -13.6229 H   0  0  0  0  0  0  0  0  0  0  0  0
   41.3533   -0.1142  -12.8650 N   0  0  0  0  0  0  0  0  0  0  0  0
   42.0255    0.4023  -11.7612 C   0  0  0  0  0  0  0  0  0  0  0  0
   42.6618    1.5821  -11.7424 C   0  0  0  0  0  0  0  0  0  0  0  0
   42.6391    2.4032  -12.9772 C   0  0  0  0  0  0  0  0  0  0  0  0
   43.1595    3.5099  -13.0213 O   0  0  0  0  0  0  0  0  0  0  0  0
   41.9477    1.8420  -14.1576 C   0  0  0  0  0  0  0  0  0  0  0  0
   41.3566    0.6471  -14.0323 C   0  0  0  0  0  0  0  0  0  0  0  0
  2  3  2  0
  3  4  1  0
  4  1  1  0
  1 19  1  0
 19 20  2  0
 21 20  1  0
 21 22  1  0
 22 23  1  0
 23 30  1  0
 30 31  1  0
 31 32  2  0
 32 33  1  0
 33 34  2  0
 33 35  1  0
 35 36  2  0
 23 24  1  0
 24 25  1  0
 24 26  1  0
 26 27  1  0
  3  6  1  0
  6  7  2  0
  7  8  1  0
  8 16  1  0
 16 17  2  0
 16 18  1  0
  8  9  2  0
  9 10  1  0
 10 11  1  0
 10 12  2  0
 12 13  1  0
 26 21  1  0
 12  6  1  0
 36 30  1  0
  4  5  1  0
 25 28  1  0
 27 29  1  0
 11 14  1  0
 13 15  1  0
M  CHG 1  16   1
M  CHG 1  18  -1
M  END
> <minimizedAffinity>
-6.76398

> <CNNscore>
0.5695993900

> <CNNaffinity>
5.3793334961

> <CNN_VS>
3.0640649796

> <CNNaffinity_variance>
0.0083379066

$$$$



 36 38  0  0  0  0  0  0  0  0999 V2000
   36.1961   -1.6716  -13.1863 C   0  0  0  0  0  0  0  0  0  0  0  0
   35.5829    0.3081  -11.2545 O   0  0  0  0  0  0  0  0  0  0  0  0
   35.1844    0.4387  -12.4059 C   0  0  0  0  0  0  0  0  0  0  0  0
   35.3647   -0.5127  -13.3801 N   0  0  0  0  0  0  0  0  0  0  0  0
   34.9075   -0.3975  -14.2444 H   0  0  0  0  0  0  0  0  0  0  0  0
   34.4738    1.6931  -12.8036 C   0  0  0  0  0  0  0  0  0  0  0  0
   34.6850    2.8343  -12.0079 C   0  0  0  0  0  0  0  0  0  0  0  0
   34.0582    4.0490  -12.3298 C   0  0  0  0  0  0  0  0  0  0  0  0
   33.2277    4.1558  -13.4532 C   0  0  0  0  0  0  0  0  0  0  0  0
   33.0270    3.0269  -14.2352 C   0  0  0  0  0  0  0  0  0  0  0  0
   32.2356    3.0506  -15.3522 O   0  0  0  0  0  0  0  0  0  0  0  0
   33.6317    1.8039  -13.9156 C   0  0  0  0  0  0  0  0  0  0  0  0
   33.3658    0.7413  -14.7455 O   0  0  0  0  0  0  0  0  0  0  0  0
   31.8093    3.8450  -15.6076 H   0  0  0  0  0  0  0  0  0  0  0  0
   32.7965    0.8526  -15.4814 H   0  0  0  0  0  0  0  0  0  0  0  0
   34.2724    5.2263  -11.4777 N   0  0  0  0  0  0  0  0  0  0  0  0
   33.7104    5.2513  -10.3748 O   0  0  0  0  0  0  0  0  0  0  0  0
   35.0009    6.1271  -11.9188 O   0  0  0  0  0  0  0  0  0  0  0  0
   37.6070   -1.2374  -13.4265 C   0  0  0  0  0  0  0  0  0  0  0  0
   38.6759   -1.7366  -12.7798 C   0  0  0  0  0  0  0  0  0  0  0  0
   40.0992   -1.2560  -12.9257 C   0  0  0  0  0  0  0  0  0  0  0  0
   40.9759   -2.1018  -12.1388 O   0  0  0  0  0  0  0  0  0  0  0  0
   41.9163   -2.7114  -13.0379 C   0  0  0  0  0  0  0  0  0  0  0  0
   41.2813   -2.6700  -14.4352 C   0  0  0  0  0  0  0  0  0  0  0  0
   42.2220   -2.7402  -15.5106 O   0  0  0  0  0  0  0  0  0  0  0  0
   40.5974   -1.3185  -14.3815 C   0  0  0  0  0  0  0  0  0  0  0  0
   41.5666   -0.2857  -14.6318 O   0  0  0  0  0  0  0  0  0  0  0  0
   42.8601   -2.0141  -15.4299 H   0  0  0  0  0  0  0  0  0  0  0  0
   42.2971   -0.3676  -13.9988 H   0  0  0  0  0  0  0  0  0  0  0  0
   42.2459   -4.1008  -12.6368 N   0  0  0  0  0  0  0  0  0  0  0  0
   43.5318   -4.4349  -12.2220 C   0  0  0  0  0  0  0  0  0  0  0  0
   43.9116   -5.6618  -11.8375 C   0  0  0  0  0  0  0  0  0  0  0  0
   42.8980   -6.7439  -11.8674 C   0  0  0  0  0  0  0  0  0  0  0  0
   43.1821   -7.8973  -11.5734 O   0  0  0  0  0  0  0  0  0  0  0  0
   41.5256   -6.3825  -12.2825 C   0  0  0  0  0  0  0  0  0  0  0  0
   41.2886   -5.1136  -12.6379 C   0  0  0  0  0  0  0  0  0  0  0  0
  2  3  2  0
  3  4  1  0
  4  1  1  0
  1 19  1  0
 19 20  2  0
 21 20  1  0
 21 22  1  0
 22 23  1  0
 23 30  1  0
 30 31  1  0
 31 32  2  0
 32 33  1  0
 33 34  2  0
 33 35  1  0
 35 36  2  0
 23 24  1  0
 24 25  1  0
 24 26  1  0
 26 27  1  0
  3  6  1  0
  6  7  2  0
  7  8  1  0
  8 16  1  0
 16 17  2  0
 16 18  1  0
  8  9  2  0
  9 10  1  0
 10 11  1  0
 10 12  2  0
 12 13  1  0
 26 21  1  0
 12  6  1  0
 36 30  1  0
  4  5  1  0
 25 28  1  0
 27 29  1  0
 11 14  1  0
 13 15  1  0
M  CHG 1  16   1
M  CHG 1  18  -1
M  END
> <minimizedAffinity>
-9.45732

> <CNNscore>
0.5467429161

> <CNNaffinity>
6.3871116638

> <CNN_VS>
3.4921081066

> <CNNaffinity_variance>
0.0563172586

$$$$



 36 38  0  0  0  0  0  0  0  0999 V2000
   38.4532   -1.9332   -6.1842 C   0  0  0  0  0  0  0  0  0  0  0  0
   36.6407   -3.6050   -7.5797 O   0  0  0  0  0  0  0  0  0  0  0  0
   37.2740   -4.0535   -6.6313 C   0  0  0  0  0  0  0  0  0  0  0  0
   38.1070   -3.2899   -5.8504 N   0  0  0  0  0  0  0  0  0  0  0  0
   38.4817   -3.6859   -5.0307 H   0  0  0  0  0  0  0  0  0  0  0  0
   37.1647   -5.5057   -6.2910 C   0  0  0  0  0  0  0  0  0  0  0  0
   38.2315   -6.0835   -5.5782 C   0  0  0  0  0  0  0  0  0  0  0  0
   38.1902   -7.4396   -5.2157 C   0  0  0  0  0  0  0  0  0  0  0  0
   37.0850   -8.2382   -5.5382 C   0  0  0  0  0  0  0  0  0  0  0  0
   36.0350   -7.6604   -6.2380 C   0  0  0  0  0  0  0  0  0  0  0  0
   34.9174   -8.3713   -6.5848 O   0  0  0  0  0  0  0  0  0  0  0  0
   36.0709   -6.3133   -6.6219 C   0  0  0  0  0  0  0  0  0  0  0  0
   34.9876   -5.8346   -7.3189 O   0  0  0  0  0  0  0  0  0  0  0  0
   34.8461   -9.2757   -6.3508 H   0  0  0  0  0  0  0  0  0  0  0  0
   34.2726   -6.4048   -7.5230 H   0  0  0  0  0  0  0  0  0  0  0  0
   39.3209   -8.0333   -4.4897 N   0  0  0  0  0  0  0  0  0  0  0  0
   39.0744   -8.9218   -3.6634 O   0  0  0  0  0  0  0  0  0  0  0  0
   40.4549   -7.6035   -4.7465 O   0  0  0  0  0  0  0  0  0  0  0  0
   39.6667   -1.9979   -7.0561 C   0  0  0  0  0  0  0  0  0  0  0  0
   40.2051   -3.1381   -7.5250 C   0  0  0  0  0  0  0  0  0  0  0  0
   41.4806   -3.2482   -8.3243 C   0  0  0  0  0  0  0  0  0  0  0  0
   41.1583   -3.5408   -9.7077 O   0  0  0  0  0  0  0  0  0  0  0  0
   41.6698   -2.4655  -10.5116 C   0  0  0  0  0  0  0  0  0  0  0  0
   41.8242   -1.2539   -9.5813 C   0  0  0  0  0  0  0  0  0  0  0  0
   42.7700   -0.2814  -10.0348 O   0  0  0  0  0  0  0  0  0  0  0  0
   42.2971   -1.9425   -8.3166 C   0  0  0  0  0  0  0  0  0  0  0  0
   43.7037   -2.2218   -8.4258 O   0  0  0  0  0  0  0  0  0  0  0  0
   43.6355   -0.7030  -10.1537 H   0  0  0  0  0  0  0  0  0  0  0  0
   43.8685   -2.7433   -9.2270 H   0  0  0  0  0  0  0  0  0  0  0  0
   40.7780   -2.1562  -11.6558 N   0  0  0  0  0  0  0  0  0  0  0  0
   39.3982   -2.2973  -11.5401 C   0  0  0  0  0  0  0  0  0  0  0  0
   38.5224   -2.0337  -12.5203 C   0  0  0  0  0  0  0  0  0  0  0  0
   39.0575   -1.5724  -13.8242 C   0  0  0  0  0  0  0  0  0  0  0  0
   38.3228   -1.3554  -14.7785 O   0  0  0  0  0  0  0  0  0  0  0  0
   40.5213   -1.3971  -13.9380 C   0  0  0  0  0  0  0  0  0  0  0  0
   41.2762   -1.6965  -12.8734 C   0  0  0  0  0  0  0  0  0  0  0  0
  2  3  2  0
  3  4  1  0
  4  1  1  0
  1 19  1  0
 19 20  2  0
 21 20  1  0
 21 22  1  0
 22 23  1  0
 23 30  1  0
 30 31  1  0
 31 32  2  0
 32 33  1  0
 33 34  2  0
 33 35  1  0
 35 36  2  0
 23 24  1  0
 24 25  1  0
 24 26  1  0
 26 27  1  0
  3  6  1  0
  6  7  2  0
  7  8  1  0
  8 16  1  0
 16 17  2  0
 16 18  1  0
  8  9  2  0
  9 10  1  0
 10 11  1  0
 10 12  2  0
 12 13  1  0
 26 21  1  0
 12  6  1  0
 36 30  1  0
  4  5  1  0
 25 28  1  0
 27 29  1  0
 11 14  1  0
 13 15  1  0
M  CHG 1  16   1
M  CHG 1  18  -1
M  END
> <minimizedAffinity>
-6.72776

> <CNNscore>
0.4594804347

> <CNNaffinity>
5.1779012680

> <CNN_VS>
2.3791444302

> <CNNaffinity_variance>
0.1801554412

$$$$



 36 38  0  0  0  0  0  0  0  0999 V2000
   38.8193   -2.5049   -7.3007 C   0  0  0  0  0  0  0  0  0  0  0  0
   36.2274   -3.5247   -7.8195 O   0  0  0  0  0  0  0  0  0  0  0  0
   37.0340   -4.2042   -7.1956 C   0  0  0  0  0  0  0  0  0  0  0  0
   38.2784   -3.7527   -6.8292 N   0  0  0  0  0  0  0  0  0  0  0  0
   38.8215   -4.3039   -6.2206 H   0  0  0  0  0  0  0  0  0  0  0  0
   36.6784   -5.6050   -6.8110 C   0  0  0  0  0  0  0  0  0  0  0  0
   37.5393   -6.2668   -5.9161 C   0  0  0  0  0  0  0  0  0  0  0  0
   37.2601   -7.5798   -5.5036 C   0  0  0  0  0  0  0  0  0  0  0  0
   36.1161   -8.2497   -5.9571 C   0  0  0  0  0  0  0  0  0  0  0  0
   35.2698   -7.5892   -6.8366 C   0  0  0  0  0  0  0  0  0  0  0  0
   34.1292   -8.1722   -7.3201 O   0  0  0  0  0  0  0  0  0  0  0  0
   35.5455   -6.2858   -7.2707 C   0  0  0  0  0  0  0  0  0  0  0  0
   34.6527   -5.7189   -8.1482 O   0  0  0  0  0  0  0  0  0  0  0  0
   33.9012   -9.0429   -7.0593 H   0  0  0  0  0  0  0  0  0  0  0  0
   33.9046   -6.2050   -8.4347 H   0  0  0  0  0  0  0  0  0  0  0  0
   38.1794   -8.2647   -4.5849 N   0  0  0  0  0  0  0  0  0  0  0  0
   39.3505   -7.8659   -4.5355 O   0  0  0  0  0  0  0  0  0  0  0  0
   37.7257   -9.2055   -3.9173 O   0  0  0  0  0  0  0  0  0  0  0  0
   39.0389   -2.6566   -8.7724 C   0  0  0  0  0  0  0  0  0  0  0  0
   40.2369   -2.5556   -9.3760 C   0  0  0  0  0  0  0  0  0  0  0  0
   40.4821   -2.6061  -10.8644 C   0  0  0  0  0  0  0  0  0  0  0  0
   40.8022   -1.2758  -11.3450 O   0  0  0  0  0  0  0  0  0  0  0  0
   42.1193   -1.3238  -11.9169 C   0  0  0  0  0  0  0  0  0  0  0  0
   42.8229   -2.5425  -11.3028 C   0  0  0  0  0  0  0  0  0  0  0  0
   43.9004   -3.0577  -12.0900 O   0  0  0  0  0  0  0  0  0  0  0  0
   41.6652   -3.5187  -11.2374 C   0  0  0  0  0  0  0  0  0  0  0  0
   41.4652   -4.1053  -12.5353 O   0  0  0  0  0  0  0  0  0  0  0  0
   43.5731   -3.2913  -12.9727 H   0  0  0  0  0  0  0  0  0  0  0  0
   41.3335   -3.4026  -13.1909 H   0  0  0  0  0  0  0  0  0  0  0  0
   42.8805   -0.0767  -11.6611 N   0  0  0  0  0  0  0  0  0  0  0  0
   42.2575    1.0337  -11.0991 C   0  0  0  0  0  0  0  0  0  0  0  0
   42.8716    2.1946  -10.8296 C   0  0  0  0  0  0  0  0  0  0  0  0
   44.3116    2.3125  -11.1644 C   0  0  0  0  0  0  0  0  0  0  0  0
   44.9277    3.3551  -10.9885 O   0  0  0  0  0  0  0  0  0  0  0  0
   44.9790    1.1236  -11.7367 C   0  0  0  0  0  0  0  0  0  0  0  0
   44.2399    0.0277  -11.9496 C   0  0  0  0  0  0  0  0  0  0  0  0
  2  3  2  0
  3  4  1  0
  4  1  1  0
  1 19  1  0
 19 20  2  0
 21 20  1  0
 21 22  1  0
 22 23  1  0
 23 30  1  0
 30 31  1  0
 31 32  2  0
 32 33  1  0
 33 34  2  0
 33 35  1  0
 35 36  2  0
 23 24  1  0
 24 25  1  0
 24 26  1  0
 26 27  1  0
  3  6  1  0
  6  7  2  0
  7  8  1  0
  8 16  1  0
 16 17  2  0
 16 18  1  0
  8  9  2  0
  9 10  1  0
 10 11  1  0
 10 12  2  0
 12 13  1  0
 26 21  1  0
 12  6  1  0
 36 30  1  0
  4  5  1  0
 25 28  1  0
 27 29  1  0
 11 14  1  0
 13 15  1  0
M  CHG 1  16   1
M  CHG 1  18  -1
M  END
> <minimizedAffinity>
-6.76383

> <CNNscore>
0.4502714574

> <CNNaffinity>
5.4276103973

> <CNN_VS>
2.4438979626

> <CNNaffinity_variance>
0.0226138216

$$$$
