


 16 17  0  0  0  0  0  0  0  0999 V2000
   14.8474   16.0369   19.1424 C   0  0  0  0  0  0  0  0  0  0  0  0
   16.1306   16.5762   19.7098 C   0  0  0  0  0  0  0  0  0  0  0  0
   17.2033   16.8524   18.8440 C   0  0  0  0  0  0  0  0  0  0  0  0
   18.4184   17.3343   19.3354 C   0  0  0  0  0  0  0  0  0  0  0  0
   18.5809   17.5445   20.7015 C   0  0  0  0  0  0  0  0  0  0  0  0
   17.5176   17.2794   21.5697 C   0  0  0  0  0  0  0  0  0  0  0  0
   17.6543   17.4916   23.0373 C   0  0  0  0  0  0  0  0  0  0  0  0
   18.7451   17.8445   23.4753 O   0  0  0  0  0  0  0  0  0  0  0  0
   16.5608   17.2976   23.8555 N   0  0  0  0  0  0  0  0  0  0  0  0
   15.4804   16.8395   23.3217 C   0  0  0  0  0  0  0  0  0  0  0  0
   14.3776   16.6325   24.0852 N   0  0  0  0  0  0  0  0  0  0  0  0
   15.2821   16.5061   22.0197 N   0  0  0  0  0  0  0  0  0  0  0  0
   16.2837   16.8181   21.0873 C   0  0  0  0  0  0  0  0  0  0  0  0
   14.3996   16.8378   25.0478 H   0  0  0  0  0  0  0  0  0  0  0  0
   13.5556   16.2769   23.6764 H   0  0  0  0  0  0  0  0  0  0  0  0
   14.4539   16.0555   21.7364 H   0  0  0  0  0  0  0  0  0  0  0  0
  1  2  1  0
  2  3  2  0
  3  4  1  0
  4  5  2  0
  5  6  1  0
  6  7  1  0
  7  8  2  0
  7  9  1  0
  9 10  2  0
 10 11  1  0
 10 12  1  0
 12 13  1  0
 13  2  1  0
 13  6  2  0
 11 14  1  0
 11 15  1  0
 12 16  1  0
M  END
> <minimizedAffinity>
-8.31508

> <CNNscore>
0.9828457832

> <CNNaffinity>
5.6687741280

> <CNN_VS>
5.5715308189

> <CNNaffinity_variance>
0.1386076212

$$$$



 16 17  0  0  0  0  0  0  0  0999 V2000
   13.3937   21.5322   15.6703 C   0  0  0  0  0  0  0  0  0  0  0  0
   12.0952   20.8959   15.2600 C   0  0  0  0  0  0  0  0  0  0  0  0
   11.2541   21.5693   14.3569 C   0  0  0  0  0  0  0  0  0  0  0  0
   10.0302   21.0206   13.9680 C   0  0  0  0  0  0  0  0  0  0  0  0
    9.6266   19.7907   14.4791 C   0  0  0  0  0  0  0  0  0  0  0  0
   10.4594   19.1101   15.3724 C   0  0  0  0  0  0  0  0  0  0  0  0
   10.0610   17.7924   15.9405 C   0  0  0  0  0  0  0  0  0  0  0  0
    8.9537   17.3465   15.6555 O   0  0  0  0  0  0  0  0  0  0  0  0
   10.9413   17.1109   16.7549 N   0  0  0  0  0  0  0  0  0  0  0  0
   12.0452   17.6953   17.0743 C   0  0  0  0  0  0  0  0  0  0  0  0
   12.9439   17.0653   17.8727 N   0  0  0  0  0  0  0  0  0  0  0  0
   12.4568   18.9365   16.7059 N   0  0  0  0  0  0  0  0  0  0  0  0
   11.7022   19.6381   15.7528 C   0  0  0  0  0  0  0  0  0  0  0  0
   12.7562   16.1576   18.2045 H   0  0  0  0  0  0  0  0  0  0  0  0
   13.7835   17.5159   18.1200 H   0  0  0  0  0  0  0  0  0  0  0  0
   13.2666   19.3352   17.0990 H   0  0  0  0  0  0  0  0  0  0  0  0
  1  2  1  0
  2  3  2  0
  3  4  1  0
  4  5  2  0
  5  6  1  0
  6  7  1  0
  7  8  2  0
  7  9  1  0
  9 10  2  0
 10 11  1  0
 10 12  1  0
 12 13  1  0
 13  2  1  0
 13  6  2  0
 11 14  1  0
 11 15  1  0
 12 16  1  0
M  END
> <minimizedAffinity>
-5.44803

> <CNNscore>
0.5392124057

> <CNNaffinity>
4.3877434731

> <CNN_VS>
2.3659257889

> <CNNaffinity_variance>
0.0109476587

$$$$



 16 17  0  0  0  0  0  0  0  0999 V2000
   15.6845   17.5424   16.1513 C   0  0  0  0  0  0  0  0  0  0  0  0
   14.3861   17.7375   15.4196 C   0  0  0  0  0  0  0  0  0  0  0  0
   14.3596   18.5437   14.2683 C   0  0  0  0  0  0  0  0  0  0  0  0
   13.1689   18.7661   13.5732 C   0  0  0  0  0  0  0  0  0  0  0  0
   11.9848   18.1880   14.0210 C   0  0  0  0  0  0  0  0  0  0  0  0
   12.0024   17.3789   15.1611 C   0  0  0  0  0  0  0  0  0  0  0  0
   10.7554   16.7439   15.6704 C   0  0  0  0  0  0  0  0  0  0  0  0
    9.6980   16.9995   15.1022 O   0  0  0  0  0  0  0  0  0  0  0  0
   10.8223   15.8870   16.7493 N   0  0  0  0  0  0  0  0  0  0  0  0
   11.9595   15.7475   17.3405 C   0  0  0  0  0  0  0  0  0  0  0  0
   12.0762   14.9152   18.4062 N   0  0  0  0  0  0  0  0  0  0  0  0
   13.1302   16.3632   17.0304 N   0  0  0  0  0  0  0  0  0  0  0  0
   13.1954   17.1273   15.8549 C   0  0  0  0  0  0  0  0  0  0  0  0
   11.2928   14.4118   18.7257 H   0  0  0  0  0  0  0  0  0  0  0  0
   12.9443   14.8148   18.8596 H   0  0  0  0  0  0  0  0  0  0  0  0
   13.9156   16.2753   17.6175 H   0  0  0  0  0  0  0  0  0  0  0  0
  1  2  1  0
  2  3  2  0
  3  4  1  0
  4  5  2  0
  5  6  1  0
  6  7  1  0
  7  8  2  0
  7  9  1  0
  9 10  2  0
 10 11  1  0
 10 12  1  0
 12 13  1  0
 13  2  1  0
 13  6  2  0
 11 14  1  0
 11 15  1  0
 12 16  1  0
M  END
> <minimizedAffinity>
-5.71053

> <CNNscore>
0.5126035810

> <CNNaffinity>
4.3265223503

> <CNN_VS>
2.2177908421

> <CNNaffinity_variance>
0.2953815162

$$$$



 16 17  0  0  0  0  0  0  0  0999 V2000
   12.0373   20.6585   17.0234 C   0  0  0  0  0  0  0  0  0  0  0  0
   11.3598   19.5058   16.3368 C   0  0  0  0  0  0  0  0  0  0  0  0
   10.3996   19.7647   15.3431 C   0  0  0  0  0  0  0  0  0  0  0  0
    9.7333   18.7210   14.6973 C   0  0  0  0  0  0  0  0  0  0  0  0
   10.0147   17.4013   15.0378 C   0  0  0  0  0  0  0  0  0  0  0  0
   10.9732   17.1335   16.0198 C   0  0  0  0  0  0  0  0  0  0  0  0
   11.3005   15.7344   16.4109 C   0  0  0  0  0  0  0  0  0  0  0  0
   10.6622   14.8215   15.8958 O   0  0  0  0  0  0  0  0  0  0  0  0
   12.3080   15.5035   17.3244 N   0  0  0  0  0  0  0  0  0  0  0  0
   12.8635   16.5244   17.8822 C   0  0  0  0  0  0  0  0  0  0  0  0
   13.8599   16.3488   18.7869 N   0  0  0  0  0  0  0  0  0  0  0  0
   12.5658   17.8350   17.6840 N   0  0  0  0  0  0  0  0  0  0  0  0
   11.6675   18.1713   16.6593 C   0  0  0  0  0  0  0  0  0  0  0  0
   14.1640   15.4404   19.0141 H   0  0  0  0  0  0  0  0  0  0  0  0
   14.2784   17.1297   19.2160 H   0  0  0  0  0  0  0  0  0  0  0  0
   12.9712   18.5337   18.2468 H   0  0  0  0  0  0  0  0  0  0  0  0
  1  2  1  0
  2  3  2  0
  3  4  1  0
  4  5  2  0
  5  6  1  0
  6  7  1  0
  7  8  2  0
  7  9  1  0
  9 10  2  0
 10 11  1  0
 10 12  1  0
 12 13  1  0
 13  2  1  0
 13  6  2  0
 11 14  1  0
 11 15  1  0
 12 16  1  0
M  END
> <minimizedAffinity>
-5.65090

> <CNNscore>
0.4595012963

> <CNNaffinity>
3.8398399353

> <CNN_VS>
1.7644114494

> <CNNaffinity_variance>
0.4423151016

$$$$



 16 17  0  0  0  0  0  0  0  0999 V2000
   11.5823   19.5677   16.5000 C   0  0  0  0  0  0  0  0  0  0  0  0
   12.7111   19.3369   15.5346 C   0  0  0  0  0  0  0  0  0  0  0  0
   13.3809   20.4426   14.9822 C   0  0  0  0  0  0  0  0  0  0  0  0
   14.4205   20.2695   14.0659 C   0  0  0  0  0  0  0  0  0  0  0  0
   14.8043   18.9872   13.6849 C   0  0  0  0  0  0  0  0  0  0  0  0
   14.1488   17.8812   14.2341 C   0  0  0  0  0  0  0  0  0  0  0  0
   14.5314   16.4941   13.8502 C   0  0  0  0  0  0  0  0  0  0  0  0
   15.3944   16.3452   12.9903 O   0  0  0  0  0  0  0  0  0  0  0  0
   13.9196   15.4252   14.4713 N   0  0  0  0  0  0  0  0  0  0  0  0
   12.9606   15.6737   15.2964 C   0  0  0  0  0  0  0  0  0  0  0  0
   12.3280   14.6556   15.9330 N   0  0  0  0  0  0  0  0  0  0  0  0
   12.4576   16.8901   15.6325 N   0  0  0  0  0  0  0  0  0  0  0  0
   13.1194   18.0397   15.1738 C   0  0  0  0  0  0  0  0  0  0  0  0
   12.6051   13.7251   15.7697 H   0  0  0  0  0  0  0  0  0  0  0  0
   11.5920   14.8475   16.5580 H   0  0  0  0  0  0  0  0  0  0  0  0
   11.6465   16.9636   16.1857 H   0  0  0  0  0  0  0  0  0  0  0  0
  1  2  1  0
  2  3  2  0
  3  4  1  0
  4  5  2  0
  5  6  1  0
  6  7  1  0
  7  8  2  0
  7  9  1  0
  9 10  2  0
 10 11  1  0
 10 12  1  0
 12 13  1  0
 13  2  1  0
 13  6  2  0
 11 14  1  0
 11 15  1  0
 12 16  1  0
M  END
> <minimizedAffinity>
-5.01101

> <CNNscore>
0.3617419004

> <CNNaffinity>
4.2288661003

> <CNN_VS>
1.5297580957

> <CNNaffinity_variance>
0.0685125887

$$$$



 16 17  0  0  0  0  0  0  0  0999 V2000
   15.1224   16.6378   23.4841 C   0  0  0  0  0  0  0  0  0  0  0  0
   16.2780   16.9512   22.5755 C   0  0  0  0  0  0  0  0  0  0  0  0
   17.4595   17.4812   23.1227 C   0  0  0  0  0  0  0  0  0  0  0  0
   18.5472   17.8048   22.3088 C   0  0  0  0  0  0  0  0  0  0  0  0
   18.4688   17.6065   20.9335 C   0  0  0  0  0  0  0  0  0  0  0  0
   17.3006   17.0733   20.3807 C   0  0  0  0  0  0  0  0  0  0  0  0
   17.1797   16.8475   18.9137 C   0  0  0  0  0  0  0  0  0  0  0  0
   18.1075   17.2007   18.1920 O   0  0  0  0  0  0  0  0  0  0  0  0
   16.0450   16.2451   18.4114 N   0  0  0  0  0  0  0  0  0  0  0  0
   15.0830   15.9900   19.2309 C   0  0  0  0  0  0  0  0  0  0  0  0
   13.9465   15.3974   18.7847 N   0  0  0  0  0  0  0  0  0  0  0  0
   15.0428   16.2562   20.5625 N   0  0  0  0  0  0  0  0  0  0  0  0
   16.2095   16.7210   21.1892 C   0  0  0  0  0  0  0  0  0  0  0  0
   13.8576   15.1559   17.8344 H   0  0  0  0  0  0  0  0  0  0  0  0
   13.2109   15.2090   19.4113 H   0  0  0  0  0  0  0  0  0  0  0  0
   14.2134   16.1260   21.0767 H   0  0  0  0  0  0  0  0  0  0  0  0
  1  2  1  0
  2  3  2  0
  3  4  1  0
  4  5  2  0
  5  6  1  0
  6  7  1  0
  7  8  2  0
  7  9  1  0
  9 10  2  0
 10 11  1  0
 10 12  1  0
 12 13  1  0
 13  2  1  0
 13  6  2  0
 11 14  1  0
 11 15  1  0
 12 16  1  0
M  END
> <minimizedAffinity>
-6.93705

> <CNNscore>
0.2940705419

> <CNNaffinity>
3.6888446808

> <CNN_VS>
1.0847805738

> <CNNaffinity_variance>
1.3193141222

$$$$



 16 17  0  0  0  0  0  0  0  0999 V2000
   14.4971   19.0108   13.8051 C   0  0  0  0  0  0  0  0  0  0  0  0
   13.0015   18.8613   13.8221 C   0  0  0  0  0  0  0  0  0  0  0  0
   12.2480   19.3588   12.7446 C   0  0  0  0  0  0  0  0  0  0  0  0
   10.8552   19.2577   12.7336 C   0  0  0  0  0  0  0  0  0  0  0  0
   10.1936   18.6601   13.8023 C   0  0  0  0  0  0  0  0  0  0  0  0
   10.9348   18.1560   14.8752 C   0  0  0  0  0  0  0  0  0  0  0  0
   10.2620   17.5105   16.0363 C   0  0  0  0  0  0  0  0  0  0  0  0
    9.0351   17.4884   16.0597 O   0  0  0  0  0  0  0  0  0  0  0  0
   11.0271   16.9519   17.0390 N   0  0  0  0  0  0  0  0  0  0  0  0
   12.3061   17.1012   16.9776 C   0  0  0  0  0  0  0  0  0  0  0  0
   13.1016   16.5693   17.9401 N   0  0  0  0  0  0  0  0  0  0  0  0
   13.0131   17.7663   16.0270 N   0  0  0  0  0  0  0  0  0  0  0  0
   12.3357   18.2290   14.8882 C   0  0  0  0  0  0  0  0  0  0  0  0
   12.7025   16.0631   18.6842 H   0  0  0  0  0  0  0  0  0  0  0  0
   14.0776   16.6898   17.8941 H   0  0  0  0  0  0  0  0  0  0  0  0
   13.9795   17.9203   16.1347 H   0  0  0  0  0  0  0  0  0  0  0  0
  1  2  1  0
  2  3  2  0
  3  4  1  0
  4  5  2  0
  5  6  1  0
  6  7  1  0
  7  8  2  0
  7  9  1  0
  9 10  2  0
 10 11  1  0
 10 12  1  0
 12 13  1  0
 13  2  1  0
 13  6  2  0
 11 14  1  0
 11 15  1  0
 12 16  1  0
M  END
> <minimizedAffinity>
-5.09501

> <CNNscore>
0.2790245712

> <CNNaffinity>
3.8144376278

> <CNN_VS>
1.0643218756

> <CNNaffinity_variance>
0.2078537941

$$$$



 16 17  0  0  0  0  0  0  0  0999 V2000
   11.8208   22.6942   13.7979 C   0  0  0  0  0  0  0  0  0  0  0  0
   11.6118   21.4943   14.6787 C   0  0  0  0  0  0  0  0  0  0  0  0
   12.4506   21.3023   15.7904 C   0  0  0  0  0  0  0  0  0  0  0  0
   12.3015   20.1890   16.6202 C   0  0  0  0  0  0  0  0  0  0  0  0
   11.3126   19.2480   16.3490 C   0  0  0  0  0  0  0  0  0  0  0  0
   10.4689   19.4338   15.2498 C   0  0  0  0  0  0  0  0  0  0  0  0
    9.4000   18.4482   14.9279 C   0  0  0  0  0  0  0  0  0  0  0  0
    9.3178   17.4339   15.6139 O   0  0  0  0  0  0  0  0  0  0  0  0
    8.5339   18.7033   13.8851 N   0  0  0  0  0  0  0  0  0  0  0  0
    8.7503   19.7482   13.1616 C   0  0  0  0  0  0  0  0  0  0  0  0
    7.9256   20.0421   12.1246 N   0  0  0  0  0  0  0  0  0  0  0  0
    9.7582   20.6492   13.2964 N   0  0  0  0  0  0  0  0  0  0  0  0
   10.5917   20.5599   14.4221 C   0  0  0  0  0  0  0  0  0  0  0  0
    7.1565   19.4601   11.9270 H   0  0  0  0  0  0  0  0  0  0  0  0
    8.0964   20.8374   11.5699 H   0  0  0  0  0  0  0  0  0  0  0  0
    9.9009   21.3494   12.6192 H   0  0  0  0  0  0  0  0  0  0  0  0
  1  2  1  0
  2  3  2  0
  3  4  1  0
  4  5  2  0
  5  6  1  0
  6  7  1  0
  7  8  2  0
  7  9  1  0
  9 10  2  0
 10 11  1  0
 10 12  1  0
 12 13  1  0
 13  2  1  0
 13  6  2  0
 11 14  1  0
 11 15  1  0
 12 16  1  0
M  END
> <minimizedAffinity>
-4.65391

> <CNNscore>
0.2590174377

> <CNNaffinity>
3.3976414204

> <CNN_VS>
0.8800483942

> <CNNaffinity_variance>
0.5784761906

$$$$



 16 17  0  0  0  0  0  0  0  0999 V2000
   14.0654   20.3875   15.1087 C   0  0  0  0  0  0  0  0  0  0  0  0
   12.7808   19.6627   15.3984 C   0  0  0  0  0  0  0  0  0  0  0  0
   11.6254   20.4042   15.7006 C   0  0  0  0  0  0  0  0  0  0  0  0
   10.4184   19.7668   15.9959 C   0  0  0  0  0  0  0  0  0  0  0  0
   10.3489   18.3769   15.9967 C   0  0  0  0  0  0  0  0  0  0  0  0
   11.4910   17.6308   15.6905 C   0  0  0  0  0  0  0  0  0  0  0  0
   11.4552   16.1420   15.6820 C   0  0  0  0  0  0  0  0  0  0  0  0
   10.4142   15.5829   16.0133 O   0  0  0  0  0  0  0  0  0  0  0  0
   12.5776   15.4388   15.2967 N   0  0  0  0  0  0  0  0  0  0  0  0
   13.6540   16.1051   15.0527 C   0  0  0  0  0  0  0  0  0  0  0  0
   14.7840   15.4583   14.6697 N   0  0  0  0  0  0  0  0  0  0  0  0
   13.8279   17.4497   15.1390 N   0  0  0  0  0  0  0  0  0  0  0  0
   12.7037   18.2581   15.3683 C   0  0  0  0  0  0  0  0  0  0  0  0
   14.7814   14.4787   14.5718 H   0  0  0  0  0  0  0  0  0  0  0  0
   15.6064   15.9688   14.4897 H   0  0  0  0  0  0  0  0  0  0  0  0
   14.7229   17.8483   15.0429 H   0  0  0  0  0  0  0  0  0  0  0  0
  1  2  1  0
  2  3  2  0
  3  4  1  0
  4  5  2  0
  5  6  1  0
  6  7  1  0
  7  8  2  0
  7  9  1  0
  9 10  2  0
 10 11  1  0
 10 12  1  0
 12 13  1  0
 13  2  1  0
 13  6  2  0
 11 14  1  0
 11 15  1  0
 12 16  1  0
M  END
> <minimizedAffinity>
-5.22949

> <CNNscore>
0.2404070050

> <CNNaffinity>
4.0250954628

> <CNN_VS>
0.9676611423

> <CNNaffinity_variance>
0.1575443894

$$$$
