


 33 34  0  0  0  0  0  0  0  0999 V2000
  -25.7312  -32.3256   16.1445 C   0  0  0  0  0  0  0  0  0  0  0  0
  -26.7443  -33.1684   15.3727 C   0  0  0  0  0  0  0  0  0  0  0  0
  -27.9970  -32.3227   15.4499 C   0  0  0  0  0  0  0  0  0  0  0  0
  -27.8608  -31.6120   16.8024 C   0  0  0  0  0  0  0  0  0  0  0  0
  -26.4560  -31.5288   17.0940 O   0  0  0  0  0  0  0  0  0  0  0  0
  -20.8724  -33.1557   16.6686 C   0  0  0  0  0  0  0  0  0  0  0  0
  -22.3011  -33.3858   17.0419 C   0  0  0  0  0  0  0  0  0  0  0  0
  -23.3476  -32.8021   16.4436 C   0  0  0  0  0  0  0  0  0  0  0  0
  -24.6589  -33.0433   16.8212 N   0  0  0  0  0  0  0  0  0  0  0  0
  -24.9531  -33.8760   17.8964 C   0  0  0  0  0  0  0  0  0  0  0  0
  -26.0920  -34.1255   18.2879 O   0  0  0  0  0  0  0  0  0  0  0  0
  -23.8793  -34.4478   18.5191 N   0  0  0  0  0  0  0  0  0  0  0  0
  -22.5708  -34.3260   18.1529 C   0  0  0  0  0  0  0  0  0  0  0  0
  -21.6772  -34.9566   18.7060 O   0  0  0  0  0  0  0  0  0  0  0  0
  -24.0688  -35.0023   19.3102 H   0  0  0  0  0  0  0  0  0  0  0  0
  -27.9666  -31.3982   14.3354 O   0  0  0  0  0  0  0  0  0  0  0  0
  -27.6552  -32.0098   13.0946 C   0  0  0  0  0  0  0  0  0  0  0  0
  -27.5909  -31.0069   11.9109 N   0  0  0  0  0  0  0  0  0  0  0  0
  -27.9420  -29.6484   12.5123 C   0  0  0  0  0  0  0  0  0  0  0  0
  -28.6702  -31.4255   10.9344 C   0  0  0  0  0  0  0  0  0  0  0  0
  -26.1749  -31.0917   11.3946 C   0  0  0  0  0  0  0  0  0  0  0  0
  -25.6153  -30.0628   10.4305 N   0  0  0  0  0  0  0  0  0  0  0  0
  -25.0562  -28.7975   11.0598 C   0  0  0  0  0  0  0  0  0  0  0  0
  -24.4117  -30.7584    9.7184 C   0  0  0  0  0  0  0  0  0  0  0  0
  -26.5814  -29.6905    9.2985 C   0  0  0  0  0  0  0  0  0  0  0  0
  -28.6119  -32.3076   17.9429 C   0  0  0  0  0  0  0  0  0  0  0  0
  -28.2286  -31.6573   19.1494 O   0  0  0  0  0  0  0  0  0  0  0  0
  -28.4489  -30.0783   19.2765 P   0  0  0  0  0  0  0  0  0  0  0  0
  -29.3202  -29.6291   20.3918 O   0  0  0  0  0  0  0  0  0  0  0  0
  -26.9694  -29.4769   19.3793 O   0  0  0  0  0  0  0  0  0  0  0  0
  -28.9188  -29.5987   17.8343 O   0  0  0  0  0  0  0  0  0  0  0  0
  -26.5825  -29.7147   20.2365 H   0  0  0  0  0  0  0  0  0  0  0  0
  -29.8203  -29.9150   17.6661 H   0  0  0  0  0  0  0  0  0  0  0  0
  6  7  1  0
  7  8  2  0
  8  9  1  0
  1  9  1  0
  1  2  1  0
  2  3  1  0
  3 16  1  0
 16 17  1  0
 17 18  1  0
 18 19  1  0
 18 20  1  0
 18 21  1  0
 21 22  1  0
 22 23  1  0
 22 24  1  0
 22 25  1  0
  3  4  1  0
  4 26  1  0
 26 27  1  0
 27 28  1  0
 28 29  2  0
 28 30  1  0
 28 31  1  0
  4  5  1  0
  9 10  1  0
 10 11  2  0
 10 12  1  0
 12 13  1  0
 13 14  2  0
 13  7  1  0
  5  1  1  0
 30 32  1  0
 31 33  1  0
 12 15  1  0
M  CHG 1  18   1
M  CHG 1  22   1
M  END
> <minimizedAffinity>
-6.80236

> <CNNscore>
0.4719940722

> <CNNaffinity>
5.0797009468

> <CNN_VS>
2.3975887299

> <CNNaffinity_variance>
0.3396974504

$$$$



 33 34  0  0  0  0  0  0  0  0999 V2000
  -25.8922  -32.2007   16.5704 C   0  0  0  0  0  0  0  0  0  0  0  0
  -27.0908  -33.0013   16.0656 C   0  0  0  0  0  0  0  0  0  0  0  0
  -28.2379  -32.0366   16.2755 C   0  0  0  0  0  0  0  0  0  0  0  0
  -27.8063  -31.2379   17.5119 C   0  0  0  0  0  0  0  0  0  0  0  0
  -26.3699  -31.2663   17.5503 O   0  0  0  0  0  0  0  0  0  0  0  0
  -21.0318  -33.1745   16.5718 C   0  0  0  0  0  0  0  0  0  0  0  0
  -22.4205  -33.3734   17.0870 C   0  0  0  0  0  0  0  0  0  0  0  0
  -23.5055  -32.7486   16.6115 C   0  0  0  0  0  0  0  0  0  0  0  0
  -24.7774  -32.9619   17.1186 N   0  0  0  0  0  0  0  0  0  0  0  0
  -24.9834  -33.8092   18.2029 C   0  0  0  0  0  0  0  0  0  0  0  0
  -26.0826  -34.0358   18.7058 O   0  0  0  0  0  0  0  0  0  0  0  0
  -23.8684  -34.4233   18.7001 N   0  0  0  0  0  0  0  0  0  0  0  0
  -22.6016  -34.3295   18.2023 C   0  0  0  0  0  0  0  0  0  0  0  0
  -21.6747  -34.9961   18.6479 O   0  0  0  0  0  0  0  0  0  0  0  0
  -23.9914  -34.9894   19.4961 H   0  0  0  0  0  0  0  0  0  0  0  0
  -28.3329  -31.2097   15.0901 O   0  0  0  0  0  0  0  0  0  0  0  0
  -28.2240  -31.9360   13.8772 C   0  0  0  0  0  0  0  0  0  0  0  0
  -27.5278  -31.1392   12.7408 N   0  0  0  0  0  0  0  0  0  0  0  0
  -27.9610  -31.8206   11.4451 C   0  0  0  0  0  0  0  0  0  0  0  0
  -26.0375  -31.3225   12.9386 C   0  0  0  0  0  0  0  0  0  0  0  0
  -28.0355  -29.7243   12.8787 C   0  0  0  0  0  0  0  0  0  0  0  0
  -27.4689  -28.5896   12.0464 N   0  0  0  0  0  0  0  0  0  0  0  0
  -25.9902  -28.6871   11.7091 C   0  0  0  0  0  0  0  0  0  0  0  0
  -28.2269  -28.6442   10.6818 C   0  0  0  0  0  0  0  0  0  0  0  0
  -27.7764  -27.1976   12.6128 C   0  0  0  0  0  0  0  0  0  0  0  0
  -28.3952  -31.7669   18.8242 C   0  0  0  0  0  0  0  0  0  0  0  0
  -29.2771  -30.7645   19.3170 O   0  0  0  0  0  0  0  0  0  0  0  0
  -28.6565  -29.4028   19.8812 P   0  0  0  0  0  0  0  0  0  0  0  0
  -28.9425  -29.0967   21.3058 O   0  0  0  0  0  0  0  0  0  0  0  0
  -27.0881  -29.5288   19.5885 O   0  0  0  0  0  0  0  0  0  0  0  0
  -29.1109  -28.2736   18.8569 O   0  0  0  0  0  0  0  0  0  0  0  0
  -26.7037  -30.2033   20.1701 H   0  0  0  0  0  0  0  0  0  0  0  0
  -30.0632  -28.1154   18.9517 H   0  0  0  0  0  0  0  0  0  0  0  0
  6  7  1  0
  7  8  2  0
  8  9  1  0
  1  9  1  0
  1  2  1  0
  2  3  1  0
  3 16  1  0
 16 17  1  0
 17 18  1  0
 18 19  1  0
 18 20  1  0
 18 21  1  0
 21 22  1  0
 22 23  1  0
 22 24  1  0
 22 25  1  0
  3  4  1  0
  4 26  1  0
 26 27  1  0
 27 28  1  0
 28 29  2  0
 28 30  1  0
 28 31  1  0
  4  5  1  0
  9 10  1  0
 10 11  2  0
 10 12  1  0
 12 13  1  0
 13 14  2  0
 13  7  1  0
  5  1  1  0
 30 32  1  0
 31 33  1  0
 12 15  1  0
M  CHG 1  18   1
M  CHG 1  22   1
M  END
> <minimizedAffinity>
-7.11258

> <CNNscore>
0.4496741593

> <CNNaffinity>
4.8008732796

> <CNN_VS>
2.1588287354

> <CNNaffinity_variance>
0.4049334526

$$$$



 33 34  0  0  0  0  0  0  0  0999 V2000
  -26.1277  -32.2102   16.6741 C   0  0  0  0  0  0  0  0  0  0  0  0
  -27.3347  -33.0524   16.2666 C   0  0  0  0  0  0  0  0  0  0  0  0
  -28.4867  -32.0942   16.4794 C   0  0  0  0  0  0  0  0  0  0  0  0
  -28.0127  -31.2266   17.6522 C   0  0  0  0  0  0  0  0  0  0  0  0
  -26.5757  -31.2329   17.6258 O   0  0  0  0  0  0  0  0  0  0  0  0
  -21.2450  -33.0569   16.5534 C   0  0  0  0  0  0  0  0  0  0  0  0
  -22.6118  -33.2771   17.1162 C   0  0  0  0  0  0  0  0  0  0  0  0
  -23.7270  -32.6944   16.6572 C   0  0  0  0  0  0  0  0  0  0  0  0
  -24.9769  -32.9263   17.2087 N   0  0  0  0  0  0  0  0  0  0  0  0
  -25.1275  -33.7475   18.3217 C   0  0  0  0  0  0  0  0  0  0  0  0
  -26.2047  -33.9882   18.8642 O   0  0  0  0  0  0  0  0  0  0  0  0
  -23.9821  -34.3181   18.8013 N   0  0  0  0  0  0  0  0  0  0  0  0
  -22.7337  -34.2056   18.2625 C   0  0  0  0  0  0  0  0  0  0  0  0
  -21.7764  -34.8350   18.6976 O   0  0  0  0  0  0  0  0  0  0  0  0
  -24.0661  -34.8644   19.6160 H   0  0  0  0  0  0  0  0  0  0  0  0
  -28.6486  -31.3314   15.2589 O   0  0  0  0  0  0  0  0  0  0  0  0
  -29.4165  -30.1505   15.4214 C   0  0  0  0  0  0  0  0  0  0  0  0
  -30.0082  -29.6108   14.0911 N   0  0  0  0  0  0  0  0  0  0  0  0
  -30.8934  -30.7342   13.5572 C   0  0  0  0  0  0  0  0  0  0  0  0
  -28.8366  -29.3976   13.1554 C   0  0  0  0  0  0  0  0  0  0  0  0
  -30.7739  -28.3670   14.4723 C   0  0  0  0  0  0  0  0  0  0  0  0
  -30.1026  -27.0085   14.5442 N   0  0  0  0  0  0  0  0  0  0  0  0
  -28.7772  -26.8828   13.8114 C   0  0  0  0  0  0  0  0  0  0  0  0
  -31.0802  -26.0139   13.8410 C   0  0  0  0  0  0  0  0  0  0  0  0
  -29.9532  -26.4707   15.9730 C   0  0  0  0  0  0  0  0  0  0  0  0
  -28.5328  -31.6950   19.0155 C   0  0  0  0  0  0  0  0  0  0  0  0
  -29.4226  -30.6896   19.4878 O   0  0  0  0  0  0  0  0  0  0  0  0
  -28.8130  -29.3094   20.0181 P   0  0  0  0  0  0  0  0  0  0  0  0
  -29.2552  -28.8770   21.3680 O   0  0  0  0  0  0  0  0  0  0  0  0
  -27.2281  -29.5156   19.9336 O   0  0  0  0  0  0  0  0  0  0  0  0
  -29.0875  -28.2527   18.8610 O   0  0  0  0  0  0  0  0  0  0  0  0
  -26.9486  -30.1534   20.6089 H   0  0  0  0  0  0  0  0  0  0  0  0
  -30.0359  -28.0529   18.8239 H   0  0  0  0  0  0  0  0  0  0  0  0
  6  7  1  0
  7  8  2  0
  8  9  1  0
  1  9  1  0
  1  2  1  0
  2  3  1  0
  3 16  1  0
 16 17  1  0
 17 18  1  0
 18 19  1  0
 18 20  1  0
 18 21  1  0
 21 22  1  0
 22 23  1  0
 22 24  1  0
 22 25  1  0
  3  4  1  0
  4 26  1  0
 26 27  1  0
 27 28  1  0
 28 29  2  0
 28 30  1  0
 28 31  1  0
  4  5  1  0
  9 10  1  0
 10 11  2  0
 10 12  1  0
 12 13  1  0
 13 14  2  0
 13  7  1  0
  5  1  1  0
 30 32  1  0
 31 33  1  0
 12 15  1  0
M  CHG 1  18   1
M  CHG 1  22   1
M  END
> <minimizedAffinity>
-6.79308

> <CNNscore>
0.4467678666

> <CNNaffinity>
4.4329800606

> <CNN_VS>
1.9805130959

> <CNNaffinity_variance>
0.5448604226

$$$$



 33 34  0  0  0  0  0  0  0  0999 V2000
  -26.0093  -33.2686   15.4838 C   0  0  0  0  0  0  0  0  0  0  0  0
  -27.1726  -34.2480   15.3424 C   0  0  0  0  0  0  0  0  0  0  0  0
  -28.3244  -33.3350   14.9815 C   0  0  0  0  0  0  0  0  0  0  0  0
  -27.9816  -32.0290   15.7092 C   0  0  0  0  0  0  0  0  0  0  0  0
  -26.5526  -31.9932   15.8578 O   0  0  0  0  0  0  0  0  0  0  0  0
  -21.1728  -33.9951   16.2913 C   0  0  0  0  0  0  0  0  0  0  0  0
  -22.5973  -33.9553   16.7414 C   0  0  0  0  0  0  0  0  0  0  0  0
  -23.6381  -33.6667   15.9494 C   0  0  0  0  0  0  0  0  0  0  0  0
  -24.9457  -33.6405   16.4074 N   0  0  0  0  0  0  0  0  0  0  0  0
  -25.2391  -33.8620   17.7493 C   0  0  0  0  0  0  0  0  0  0  0  0
  -26.3743  -33.8450   18.2221 O   0  0  0  0  0  0  0  0  0  0  0  0
  -24.1699  -34.1300   18.5573 N   0  0  0  0  0  0  0  0  0  0  0  0
  -22.8694  -34.2564   18.1649 C   0  0  0  0  0  0  0  0  0  0  0  0
  -21.9846  -34.6001   18.9402 O   0  0  0  0  0  0  0  0  0  0  0  0
  -24.3566  -34.2430   19.5173 H   0  0  0  0  0  0  0  0  0  0  0  0
  -28.3222  -33.1810   13.5413 O   0  0  0  0  0  0  0  0  0  0  0  0
  -28.7217  -31.8926   13.1043 C   0  0  0  0  0  0  0  0  0  0  0  0
  -29.7442  -31.9264   11.9363 N   0  0  0  0  0  0  0  0  0  0  0  0
  -30.9274  -32.7378   12.4580 C   0  0  0  0  0  0  0  0  0  0  0  0
  -29.0754  -32.6737   10.8015 C   0  0  0  0  0  0  0  0  0  0  0  0
  -30.0782  -30.4807   11.6584 C   0  0  0  0  0  0  0  0  0  0  0  0
  -30.4664  -30.0048   10.2713 N   0  0  0  0  0  0  0  0  0  0  0  0
  -29.4805  -30.3231    9.1595 C   0  0  0  0  0  0  0  0  0  0  0  0
  -31.7813  -30.7679    9.9130 C   0  0  0  0  0  0  0  0  0  0  0  0
  -30.8445  -28.5193   10.2136 C   0  0  0  0  0  0  0  0  0  0  0  0
  -28.6728  -31.8810   17.0690 C   0  0  0  0  0  0  0  0  0  0  0  0
  -28.2191  -30.6560   17.6339 O   0  0  0  0  0  0  0  0  0  0  0  0
  -28.3472  -30.4426   19.2137 P   0  0  0  0  0  0  0  0  0  0  0  0
  -29.6357  -29.8822   19.6938 O   0  0  0  0  0  0  0  0  0  0  0  0
  -28.0408  -31.8849   19.8364 O   0  0  0  0  0  0  0  0  0  0  0  0
  -27.0624  -29.6036   19.6335 O   0  0  0  0  0  0  0  0  0  0  0  0
  -28.7748  -32.4863   19.6355 H   0  0  0  0  0  0  0  0  0  0  0  0
  -27.1457  -28.6964   19.3003 H   0  0  0  0  0  0  0  0  0  0  0  0
  6  7  1  0
  7  8  2  0
  8  9  1  0
  1  9  1  0
  1  2  1  0
  2  3  1  0
  3 16  1  0
 16 17  1  0
 17 18  1  0
 18 19  1  0
 18 20  1  0
 18 21  1  0
 21 22  1  0
 22 23  1  0
 22 24  1  0
 22 25  1  0
  3  4  1  0
  4 26  1  0
 26 27  1  0
 27 28  1  0
 28 29  2  0
 28 30  1  0
 28 31  1  0
  4  5  1  0
  9 10  1  0
 10 11  2  0
 10 12  1  0
 12 13  1  0
 13 14  2  0
 13  7  1  0
  5  1  1  0
 30 32  1  0
 31 33  1  0
 12 15  1  0
M  CHG 1  18   1
M  CHG 1  22   1
M  END
> <minimizedAffinity>
-5.80504

> <CNNscore>
0.4081906974

> <CNNaffinity>
4.9490132332

> <CNN_VS>
2.0201411247

> <CNNaffinity_variance>
0.1215758547

$$$$



 33 34  0  0  0  0  0  0  0  0999 V2000
  -23.0262  -33.0924   15.6297 C   0  0  0  0  0  0  0  0  0  0  0  0
  -23.8874  -33.9990   14.7530 C   0  0  0  0  0  0  0  0  0  0  0  0
  -25.2733  -33.4249   14.9541 C   0  0  0  0  0  0  0  0  0  0  0  0
  -25.2299  -32.8923   16.3919 C   0  0  0  0  0  0  0  0  0  0  0  0
  -23.8570  -32.5845   16.6850 O   0  0  0  0  0  0  0  0  0  0  0  0
  -18.0925  -33.5543   15.5005 C   0  0  0  0  0  0  0  0  0  0  0  0
  -19.4328  -33.8460   16.0936 C   0  0  0  0  0  0  0  0  0  0  0  0
  -20.5946  -33.3844   15.6129 C   0  0  0  0  0  0  0  0  0  0  0  0
  -21.8177  -33.6790   16.1939 N   0  0  0  0  0  0  0  0  0  0  0  0
  -21.8935  -34.4365   17.3585 C   0  0  0  0  0  0  0  0  0  0  0  0
  -22.9437  -34.7268   17.9289 O   0  0  0  0  0  0  0  0  0  0  0  0
  -20.7023  -34.8824   17.8586 N   0  0  0  0  0  0  0  0  0  0  0  0
  -19.4712  -34.7057   17.2978 C   0  0  0  0  0  0  0  0  0  0  0  0
  -18.4631  -35.2278   17.7597 O   0  0  0  0  0  0  0  0  0  0  0  0
  -20.7360  -35.3802   18.7073 H   0  0  0  0  0  0  0  0  0  0  0  0
  -25.4517  -32.3684   13.9796 O   0  0  0  0  0  0  0  0  0  0  0  0
  -24.8844  -32.6583   12.7129 C   0  0  0  0  0  0  0  0  0  0  0  0
  -24.0455  -31.4889   12.1298 N   0  0  0  0  0  0  0  0  0  0  0  0
  -22.6331  -32.0455   11.9688 C   0  0  0  0  0  0  0  0  0  0  0  0
  -24.0455  -30.3960   13.1782 C   0  0  0  0  0  0  0  0  0  0  0  0
  -24.7097  -31.1376   10.8205 C   0  0  0  0  0  0  0  0  0  0  0  0
  -25.6178  -29.9298   10.6865 N   0  0  0  0  0  0  0  0  0  0  0  0
  -25.0189  -28.5982   11.1081 C   0  0  0  0  0  0  0  0  0  0  0  0
  -25.9287  -29.7992    9.1614 C   0  0  0  0  0  0  0  0  0  0  0  0
  -26.9870  -30.1121   11.3538 C   0  0  0  0  0  0  0  0  0  0  0  0
  -25.8010  -33.8666   17.4279 C   0  0  0  0  0  0  0  0  0  0  0  0
  -26.0801  -33.1092   18.6001 O   0  0  0  0  0  0  0  0  0  0  0  0
  -27.6024  -32.9291   19.0561 P   0  0  0  0  0  0  0  0  0  0  0  0
  -28.6290  -33.4716   18.1306 O   0  0  0  0  0  0  0  0  0  0  0  0
  -27.6674  -33.6089   20.5036 O   0  0  0  0  0  0  0  0  0  0  0  0
  -27.7640  -31.3825   19.3917 O   0  0  0  0  0  0  0  0  0  0  0  0
  -27.5770  -34.5704   20.4136 H   0  0  0  0  0  0  0  0  0  0  0  0
  -27.7380  -30.8688   18.5693 H   0  0  0  0  0  0  0  0  0  0  0  0
  6  7  1  0
  7  8  2  0
  8  9  1  0
  1  9  1  0
  1  2  1  0
  2  3  1  0
  3 16  1  0
 16 17  1  0
 17 18  1  0
 18 19  1  0
 18 20  1  0
 18 21  1  0
 21 22  1  0
 22 23  1  0
 22 24  1  0
 22 25  1  0
  3  4  1  0
  4 26  1  0
 26 27  1  0
 27 28  1  0
 28 29  2  0
 28 30  1  0
 28 31  1  0
  4  5  1  0
  9 10  1  0
 10 11  2  0
 10 12  1  0
 12 13  1  0
 13 14  2  0
 13  7  1  0
  5  1  1  0
 30 32  1  0
 31 33  1  0
 12 15  1  0
M  CHG 1  18   1
M  CHG 1  22   1
M  END
> <minimizedAffinity>
-6.92043

> <CNNscore>
0.3672117889

> <CNNaffinity>
5.7661833763

> <CNN_VS>
2.1174104214

> <CNNaffinity_variance>
0.7025329471

$$$$



 33 34  0  0  0  0  0  0  0  0999 V2000
  -23.5647  -34.0449   16.6194 C   0  0  0  0  0  0  0  0  0  0  0  0
  -24.1207  -32.8918   17.4521 C   0  0  0  0  0  0  0  0  0  0  0  0
  -25.4388  -32.6019   16.7672 C   0  0  0  0  0  0  0  0  0  0  0  0
  -25.1592  -32.9520   15.3001 C   0  0  0  0  0  0  0  0  0  0  0  0
  -24.1070  -33.9309   15.2948 O   0  0  0  0  0  0  0  0  0  0  0  0
  -19.3545  -33.0697   14.1915 C   0  0  0  0  0  0  0  0  0  0  0  0
  -20.1144  -33.6460   15.3420 C   0  0  0  0  0  0  0  0  0  0  0  0
  -21.4479  -33.6181   15.4638 C   0  0  0  0  0  0  0  0  0  0  0  0
  -22.1144  -34.1650   16.5488 N   0  0  0  0  0  0  0  0  0  0  0  0
  -21.4133  -34.7297   17.6096 C   0  0  0  0  0  0  0  0  0  0  0  0
  -21.9416  -35.2239   18.6042 O   0  0  0  0  0  0  0  0  0  0  0  0
  -20.0518  -34.7313   17.4912 N   0  0  0  0  0  0  0  0  0  0  0  0
  -19.3311  -34.2907   16.4199 C   0  0  0  0  0  0  0  0  0  0  0  0
  -18.1146  -34.4231   16.3531 O   0  0  0  0  0  0  0  0  0  0  0  0
  -19.5405  -35.0854   18.2544 H   0  0  0  0  0  0  0  0  0  0  0  0
  -26.4367  -33.4680   17.3605 O   0  0  0  0  0  0  0  0  0  0  0  0
  -27.5804  -33.6632   16.5455 C   0  0  0  0  0  0  0  0  0  0  0  0
  -28.8428  -32.9237   17.0657 N   0  0  0  0  0  0  0  0  0  0  0  0
  -28.5856  -32.6805   18.5508 C   0  0  0  0  0  0  0  0  0  0  0  0
  -30.0018  -33.8843   16.9006 C   0  0  0  0  0  0  0  0  0  0  0  0
  -28.9247  -31.6557   16.2508 C   0  0  0  0  0  0  0  0  0  0  0  0
  -29.2797  -31.6777   14.7761 N   0  0  0  0  0  0  0  0  0  0  0  0
  -29.1714  -33.0277   14.0867 C   0  0  0  0  0  0  0  0  0  0  0  0
  -30.7858  -31.2719   14.6956 C   0  0  0  0  0  0  0  0  0  0  0  0
  -28.5411  -30.6174   13.9493 C   0  0  0  0  0  0  0  0  0  0  0  0
  -24.7799  -31.7423   14.4390 C   0  0  0  0  0  0  0  0  0  0  0  0
  -24.1780  -32.2496   13.2533 O   0  0  0  0  0  0  0  0  0  0  0  0
  -23.2213  -31.2897   12.4042 P   0  0  0  0  0  0  0  0  0  0  0  0
  -21.8853  -31.8389   12.0601 O   0  0  0  0  0  0  0  0  0  0  0  0
  -24.0802  -30.9191   11.1055 O   0  0  0  0  0  0  0  0  0  0  0  0
  -23.1865  -29.9134   13.2013 O   0  0  0  0  0  0  0  0  0  0  0  0
  -24.1646  -31.7023   10.5394 H   0  0  0  0  0  0  0  0  0  0  0  0
  -22.6810  -30.0274   14.0213 H   0  0  0  0  0  0  0  0  0  0  0  0
  6  7  1  0
  7  8  2  0
  8  9  1  0
  1  9  1  0
  1  2  1  0
  2  3  1  0
  3 16  1  0
 16 17  1  0
 17 18  1  0
 18 19  1  0
 18 20  1  0
 18 21  1  0
 21 22  1  0
 22 23  1  0
 22 24  1  0
 22 25  1  0
  3  4  1  0
  4 26  1  0
 26 27  1  0
 27 28  1  0
 28 29  2  0
 28 30  1  0
 28 31  1  0
  4  5  1  0
  9 10  1  0
 10 11  2  0
 10 12  1  0
 12 13  1  0
 13 14  2  0
 13  7  1  0
  5  1  1  0
 30 32  1  0
 31 33  1  0
 12 15  1  0
M  CHG 1  18   1
M  CHG 1  22   1
M  END
> <minimizedAffinity>
-5.77279

> <CNNscore>
0.3649601340

> <CNNaffinity>
5.2284150124

> <CNN_VS>
1.9081630707

> <CNNaffinity_variance>
0.0663479492

$$$$



 33 34  0  0  0  0  0  0  0  0999 V2000
  -26.4634  -32.8625   16.6175 C   0  0  0  0  0  0  0  0  0  0  0  0
  -27.6044  -33.8776   16.6142 C   0  0  0  0  0  0  0  0  0  0  0  0
  -28.8283  -32.9915   16.7012 C   0  0  0  0  0  0  0  0  0  0  0  0
  -28.3379  -31.7910   17.5205 C   0  0  0  0  0  0  0  0  0  0  0  0
  -26.9191  -31.6924   17.3137 O   0  0  0  0  0  0  0  0  0  0  0  0
  -21.5206  -33.0193   16.2767 C   0  0  0  0  0  0  0  0  0  0  0  0
  -22.8089  -33.3283   16.9682 C   0  0  0  0  0  0  0  0  0  0  0  0
  -24.0207  -32.9984   16.5029 C   0  0  0  0  0  0  0  0  0  0  0  0
  -25.1925  -33.3042   17.1765 N   0  0  0  0  0  0  0  0  0  0  0  0
  -25.1621  -33.9307   18.4185 C   0  0  0  0  0  0  0  0  0  0  0  0
  -26.1624  -34.2224   19.0718 O   0  0  0  0  0  0  0  0  0  0  0  0
  -23.9212  -34.2411   18.8997 N   0  0  0  0  0  0  0  0  0  0  0  0
  -22.7323  -34.0495   18.2585 C   0  0  0  0  0  0  0  0  0  0  0  0
  -21.6703  -34.4514   18.7198 O   0  0  0  0  0  0  0  0  0  0  0  0
  -23.8813  -34.6425   19.7977 H   0  0  0  0  0  0  0  0  0  0  0  0
  -29.1956  -32.6237   15.3493 O   0  0  0  0  0  0  0  0  0  0  0  0
  -30.1561  -31.5828   15.2819 C   0  0  0  0  0  0  0  0  0  0  0  0
  -30.1555  -30.8293   13.9242 N   0  0  0  0  0  0  0  0  0  0  0  0
  -28.7892  -30.1537   13.8372 C   0  0  0  0  0  0  0  0  0  0  0  0
  -31.2393  -29.7756   14.0174 C   0  0  0  0  0  0  0  0  0  0  0  0
  -30.3702  -31.8957   12.8776 C   0  0  0  0  0  0  0  0  0  0  0  0
  -29.7625  -31.7863   11.4920 N   0  0  0  0  0  0  0  0  0  0  0  0
  -28.2635  -32.0199   11.4035 C   0  0  0  0  0  0  0  0  0  0  0  0
  -30.4261  -32.9195   10.6464 C   0  0  0  0  0  0  0  0  0  0  0  0
  -30.1243  -30.4864   10.7621 C   0  0  0  0  0  0  0  0  0  0  0  0
  -28.6632  -31.8900   19.0149 C   0  0  0  0  0  0  0  0  0  0  0  0
  -29.4066  -30.7252   19.3556 O   0  0  0  0  0  0  0  0  0  0  0  0
  -28.6159  -29.4191   19.8316 P   0  0  0  0  0  0  0  0  0  0  0  0
  -28.7325  -29.0745   21.2712 O   0  0  0  0  0  0  0  0  0  0  0  0
  -27.1010  -29.6881   19.3906 O   0  0  0  0  0  0  0  0  0  0  0  0
  -29.0672  -28.2640   18.8352 O   0  0  0  0  0  0  0  0  0  0  0  0
  -26.7225  -30.3885   19.9447 H   0  0  0  0  0  0  0  0  0  0  0  0
  -29.9879  -28.0201   19.0188 H   0  0  0  0  0  0  0  0  0  0  0  0
  6  7  1  0
  7  8  2  0
  8  9  1  0
  1  9  1  0
  1  2  1  0
  2  3  1  0
  3 16  1  0
 16 17  1  0
 17 18  1  0
 18 19  1  0
 18 20  1  0
 18 21  1  0
 21 22  1  0
 22 23  1  0
 22 24  1  0
 22 25  1  0
  3  4  1  0
  4 26  1  0
 26 27  1  0
 27 28  1  0
 28 29  2  0
 28 30  1  0
 28 31  1  0
  4  5  1  0
  9 10  1  0
 10 11  2  0
 10 12  1  0
 12 13  1  0
 13 14  2  0
 13  7  1  0
  5  1  1  0
 30 32  1  0
 31 33  1  0
 12 15  1  0
M  CHG 1  18   1
M  CHG 1  22   1
M  END
> <minimizedAffinity>
-6.23773

> <CNNscore>
0.3328378797

> <CNNaffinity>
4.4042797089

> <CNN_VS>
1.4659111500

> <CNNaffinity_variance>
0.4691776931

$$$$



 33 34  0  0  0  0  0  0  0  0999 V2000
  -26.3706  -32.7285   16.6490 C   0  0  0  0  0  0  0  0  0  0  0  0
  -27.5447  -33.7004   16.5538 C   0  0  0  0  0  0  0  0  0  0  0  0
  -28.7398  -32.7793   16.6712 C   0  0  0  0  0  0  0  0  0  0  0  0
  -28.2296  -31.6522   17.5780 C   0  0  0  0  0  0  0  0  0  0  0  0
  -26.8036  -31.5904   17.4099 O   0  0  0  0  0  0  0  0  0  0  0  0
  -21.4298  -33.0450   16.4035 C   0  0  0  0  0  0  0  0  0  0  0  0
  -22.7439  -33.3483   17.0472 C   0  0  0  0  0  0  0  0  0  0  0  0
  -23.9322  -32.9464   16.5778 C   0  0  0  0  0  0  0  0  0  0  0  0
  -25.1294  -33.2497   17.2063 N   0  0  0  0  0  0  0  0  0  0  0  0
  -25.1500  -33.9517   18.4074 C   0  0  0  0  0  0  0  0  0  0  0  0
  -26.1750  -34.2460   19.0202 O   0  0  0  0  0  0  0  0  0  0  0  0
  -23.9324  -34.3361   18.8945 N   0  0  0  0  0  0  0  0  0  0  0  0
  -22.7228  -34.1494   18.2917 C   0  0  0  0  0  0  0  0  0  0  0  0
  -21.6867  -34.6173   18.7494 O   0  0  0  0  0  0  0  0  0  0  0  0
  -23.9276  -34.7929   19.7666 H   0  0  0  0  0  0  0  0  0  0  0  0
  -29.0612  -32.3123   15.3383 O   0  0  0  0  0  0  0  0  0  0  0  0
  -30.4435  -32.3754   15.0291 C   0  0  0  0  0  0  0  0  0  0  0  0
  -30.8372  -33.6380   14.2155 N   0  0  0  0  0  0  0  0  0  0  0  0
  -31.0233  -34.7444   15.2509 C   0  0  0  0  0  0  0  0  0  0  0  0
  -29.6532  -33.9642   13.3293 C   0  0  0  0  0  0  0  0  0  0  0  0
  -32.1096  -33.2651   13.4939 C   0  0  0  0  0  0  0  0  0  0  0  0
  -33.4279  -33.9520   13.7965 N   0  0  0  0  0  0  0  0  0  0  0  0
  -33.9003  -33.8772   15.2390 C   0  0  0  0  0  0  0  0  0  0  0  0
  -34.5034  -33.1984   12.9509 C   0  0  0  0  0  0  0  0  0  0  0  0
  -33.4908  -35.4053   13.3096 C   0  0  0  0  0  0  0  0  0  0  0  0
  -28.5948  -31.8360   19.0550 C   0  0  0  0  0  0  0  0  0  0  0  0
  -29.3904  -30.7164   19.4280 O   0  0  0  0  0  0  0  0  0  0  0  0
  -28.6587  -29.3748   19.8996 P   0  0  0  0  0  0  0  0  0  0  0  0
  -28.8336  -29.0037   21.3267 O   0  0  0  0  0  0  0  0  0  0  0  0
  -27.1223  -29.6025   19.5135 O   0  0  0  0  0  0  0  0  0  0  0  0
  -29.1147  -28.2569   18.8637 O   0  0  0  0  0  0  0  0  0  0  0  0
  -26.7394  -30.2779   20.0950 H   0  0  0  0  0  0  0  0  0  0  0  0
  -30.0484  -28.0400   19.0123 H   0  0  0  0  0  0  0  0  0  0  0  0
  6  7  1  0
  7  8  2  0
  8  9  1  0
  1  9  1  0
  1  2  1  0
  2  3  1  0
  3 16  1  0
 16 17  1  0
 17 18  1  0
 18 19  1  0
 18 20  1  0
 18 21  1  0
 21 22  1  0
 22 23  1  0
 22 24  1  0
 22 25  1  0
  3  4  1  0
  4 26  1  0
 26 27  1  0
 27 28  1  0
 28 29  2  0
 28 30  1  0
 28 31  1  0
  4  5  1  0
  9 10  1  0
 10 11  2  0
 10 12  1  0
 12 13  1  0
 13 14  2  0
 13  7  1  0
  5  1  1  0
 30 32  1  0
 31 33  1  0
 12 15  1  0
M  CHG 1  18   1
M  CHG 1  22   1
M  END
> <minimizedAffinity>
-6.32101

> <CNNscore>
0.3143706024

> <CNNaffinity>
4.4078478813

> <CNN_VS>
1.3856978416

> <CNNaffinity_variance>
0.6103660464

$$$$



 33 34  0  0  0  0  0  0  0  0999 V2000
  -25.7420  -32.9721   15.4027 C   0  0  0  0  0  0  0  0  0  0  0  0
  -26.8994  -33.9171   15.0875 C   0  0  0  0  0  0  0  0  0  0  0  0
  -28.0299  -32.9573   14.7850 C   0  0  0  0  0  0  0  0  0  0  0  0
  -27.7196  -31.7521   15.6818 C   0  0  0  0  0  0  0  0  0  0  0  0
  -26.2995  -31.7468   15.9024 O   0  0  0  0  0  0  0  0  0  0  0  0
  -20.9529  -33.8351   16.3471 C   0  0  0  0  0  0  0  0  0  0  0  0
  -22.3974  -33.8368   16.7300 C   0  0  0  0  0  0  0  0  0  0  0  0
  -23.3975  -33.4452   15.9297 C   0  0  0  0  0  0  0  0  0  0  0  0
  -24.7257  -33.4623   16.3245 N   0  0  0  0  0  0  0  0  0  0  0  0
  -25.0847  -33.8412   17.6142 C   0  0  0  0  0  0  0  0  0  0  0  0
  -26.2416  -33.8708   18.0308 O   0  0  0  0  0  0  0  0  0  0  0  0
  -24.0570  -34.2145   18.4341 N   0  0  0  0  0  0  0  0  0  0  0  0
  -22.7394  -34.3047   18.0920 C   0  0  0  0  0  0  0  0  0  0  0  0
  -21.8945  -34.7474   18.8616 O   0  0  0  0  0  0  0  0  0  0  0  0
  -24.2906  -34.4406   19.3634 H   0  0  0  0  0  0  0  0  0  0  0  0
  -27.9568  -32.6298   13.3761 O   0  0  0  0  0  0  0  0  0  0  0  0
  -26.8503  -33.2155   12.7104 C   0  0  0  0  0  0  0  0  0  0  0  0
  -26.1442  -32.2504   11.7199 N   0  0  0  0  0  0  0  0  0  0  0  0
  -26.2613  -30.8656   12.3518 C   0  0  0  0  0  0  0  0  0  0  0  0
  -26.9447  -32.2928   10.4350 C   0  0  0  0  0  0  0  0  0  0  0  0
  -24.7238  -32.7516   11.6210 C   0  0  0  0  0  0  0  0  0  0  0  0
  -24.3146  -33.7890   10.5925 N   0  0  0  0  0  0  0  0  0  0  0  0
  -25.4150  -34.7227   10.1164 C   0  0  0  0  0  0  0  0  0  0  0  0
  -23.8587  -32.9832    9.3346 C   0  0  0  0  0  0  0  0  0  0  0  0
  -23.0850  -34.6098   11.0018 C   0  0  0  0  0  0  0  0  0  0  0  0
  -28.4761  -31.7642   17.0146 C   0  0  0  0  0  0  0  0  0  0  0  0
  -28.0626  -30.6097   17.7368 O   0  0  0  0  0  0  0  0  0  0  0  0
  -28.3604  -30.5359   19.3064 P   0  0  0  0  0  0  0  0  0  0  0  0
  -29.7322  -30.1177   19.6911 O   0  0  0  0  0  0  0  0  0  0  0  0
  -27.9939  -31.9959   19.8503 O   0  0  0  0  0  0  0  0  0  0  0  0
  -27.1983  -29.6368   19.9163 O   0  0  0  0  0  0  0  0  0  0  0  0
  -28.6512  -32.6340   19.5315 H   0  0  0  0  0  0  0  0  0  0  0  0
  -27.3259  -28.7147   19.6435 H   0  0  0  0  0  0  0  0  0  0  0  0
  6  7  1  0
  7  8  2  0
  8  9  1  0
  1  9  1  0
  1  2  1  0
  2  3  1  0
  3 16  1  0
 16 17  1  0
 17 18  1  0
 18 19  1  0
 18 20  1  0
 18 21  1  0
 21 22  1  0
 22 23  1  0
 22 24  1  0
 22 25  1  0
  3  4  1  0
  4 26  1  0
 26 27  1  0
 27 28  1  0
 28 29  2  0
 28 30  1  0
 28 31  1  0
  4  5  1  0
  9 10  1  0
 10 11  2  0
 10 12  1  0
 12 13  1  0
 13 14  2  0
 13  7  1  0
  5  1  1  0
 30 32  1  0
 31 33  1  0
 12 15  1  0
M  CHG 1  18   1
M  CHG 1  22   1
M  END
> <minimizedAffinity>
-6.28053

> <CNNscore>
0.3044043481

> <CNNaffinity>
5.0028824806

> <CNN_VS>
1.5228991508

> <CNNaffinity_variance>
0.2939512432

$$$$
