


 22 21  0  0  0  0  0  0  0  0999 V2000
   -2.2608    8.4324   18.1516 C   0  0  0  0  0  0  0  0  0  0  0  0
   -2.2835    9.6899   19.0255 C   0  0  0  0  0  0  0  0  0  0  0  0
   -1.8280   10.9509   18.2867 C   0  0  0  0  0  0  0  0  0  0  0  0
   -2.5273   12.1962   18.8382 C   0  0  0  0  0  0  0  0  0  0  0  0
   -3.6880   12.6858   17.9648 C   0  0  0  0  0  0  0  0  0  0  0  0
   -3.7714   14.2062   17.7897 C   0  0  0  0  0  0  0  0  0  0  0  0
   -2.4885   14.9201   17.3701 C   0  0  0  0  0  0  0  0  0  0  0  0
   -2.6290   16.3846   16.9374 C   0  0  0  0  0  0  0  0  0  0  0  0
   -3.6721   17.1889   17.7236 C   0  0  0  0  0  0  0  0  0  0  0  0
   -3.8244   18.6697   15.6494 C   0  0  0  0  0  0  0  0  0  0  0  0
   -4.5252   18.1560   16.8993 C   0  0  0  0  0  0  0  0  0  0  0  0
   -2.5822    7.1173   18.8692 C   0  0  0  0  0  0  0  0  0  0  0  0
   -3.8806    6.4228   18.4393 C   0  0  0  0  0  0  0  0  0  0  0  0
   -4.6602    5.8207   19.6183 C   0  0  0  0  0  0  0  0  0  0  0  0
   -6.1879    5.6595   19.4125 C   0  0  0  0  0  0  0  0  0  0  0  0
   -6.6073    4.1958   19.7076 C   0  0  0  0  0  0  0  0  0  0  0  0
   -6.5751    5.9486   17.9475 C   0  0  0  0  0  0  0  0  0  0  0  0
   -7.0167    6.5529   20.4011 C   0  0  0  0  0  0  0  0  0  0  0  0
   -8.5768    6.5410   20.4839 C   0  0  0  0  0  0  0  0  0  0  0  0
   -9.0121    5.0548   20.5518 C   0  0  0  0  0  0  0  0  0  0  0  0
   -9.0935    7.2125   21.7707 C   0  0  0  0  0  0  0  0  0  0  0  0
   -9.2670    7.1692   19.2683 C   0  0  0  0  0  0  0  0  0  0  0  0
 10 11  1  0
 11  9  1  0
  9  8  1  0
  8  7  1  0
  7  6  1  0
  6  5  1  0
  5  4  1  0
  4  3  1  0
  3  2  1  0
  2  1  1  0
  1 12  1  0
 12 13  1  0
 13 14  1  0
 14 15  1  0
 15 16  1  0
 15 17  1  0
 15 18  1  0
 18 19  1  0
 19 20  1  0
 19 21  1  0
 19 22  1  0
M  END
> <minimizedAffinity>
-6.35666

> <CNNscore>
0.7757196426

> <CNNaffinity>
6.7162971497

> <CNN_VS>
5.2099637985

> <CNNaffinity_variance>
0.5855575800

$$$$



 22 21  0  0  0  0  0  0  0  0999 V2000
   -2.9259    6.5049   17.8991 C   0  0  0  0  0  0  0  0  0  0  0  0
   -2.2170    7.6132   18.6832 C   0  0  0  0  0  0  0  0  0  0  0  0
   -2.0209    8.8984   17.8751 C   0  0  0  0  0  0  0  0  0  0  0  0
   -2.5788   10.1115   18.6242 C   0  0  0  0  0  0  0  0  0  0  0  0
   -3.4255   11.0393   17.7456 C   0  0  0  0  0  0  0  0  0  0  0  0
   -3.5930   12.4654   18.2816 C   0  0  0  0  0  0  0  0  0  0  0  0
   -2.3139   13.2666   18.5124 C   0  0  0  0  0  0  0  0  0  0  0  0
   -2.2635   14.6703   17.8967 C   0  0  0  0  0  0  0  0  0  0  0  0
   -3.3871   14.9734   16.8974 C   0  0  0  0  0  0  0  0  0  0  0  0
   -3.2532   17.3512   17.8175 C   0  0  0  0  0  0  0  0  0  0  0  0
   -4.0942   16.3186   17.0801 C   0  0  0  0  0  0  0  0  0  0  0  0
   -4.2385    5.9966   18.5041 C   0  0  0  0  0  0  0  0  0  0  0  0
   -4.3217    4.4835   18.7417 C   0  0  0  0  0  0  0  0  0  0  0  0
   -4.7685    4.1213   20.1663 C   0  0  0  0  0  0  0  0  0  0  0  0
   -5.9911    3.1751   20.2762 C   0  0  0  0  0  0  0  0  0  0  0  0
   -5.8016    2.2070   21.4730 C   0  0  0  0  0  0  0  0  0  0  0  0
   -6.1212    2.3019   19.0113 C   0  0  0  0  0  0  0  0  0  0  0  0
   -7.3217    3.9567   20.5607 C   0  0  0  0  0  0  0  0  0  0  0  0
   -8.5483    3.3419   21.3081 C   0  0  0  0  0  0  0  0  0  0  0  0
   -8.7598    1.9191   20.7304 C   0  0  0  0  0  0  0  0  0  0  0  0
   -8.2820    3.1719   22.8160 C   0  0  0  0  0  0  0  0  0  0  0  0
   -9.8523    4.1211   21.1052 C   0  0  0  0  0  0  0  0  0  0  0  0
 10 11  1  0
 11  9  1  0
  9  8  1  0
  8  7  1  0
  7  6  1  0
  6  5  1  0
  5  4  1  0
  4  3  1  0
  3  2  1  0
  2  1  1  0
  1 12  1  0
 12 13  1  0
 13 14  1  0
 14 15  1  0
 15 16  1  0
 15 17  1  0
 15 18  1  0
 18 19  1  0
 19 20  1  0
 19 21  1  0
 19 22  1  0
M  END
> <minimizedAffinity>
-6.28851

> <CNNscore>
0.6863434911

> <CNNaffinity>
6.1615676880

> <CNN_VS>
4.2289519310

> <CNNaffinity_variance>
0.7446123958

$$$$



 22 21  0  0  0  0  0  0  0  0999 V2000
   -2.1055    9.5694   18.0082 C   0  0  0  0  0  0  0  0  0  0  0  0
   -3.1182   10.7044   17.8301 C   0  0  0  0  0  0  0  0  0  0  0  0
   -3.1238   11.7009   18.9921 C   0  0  0  0  0  0  0  0  0  0  0  0
   -1.7567   12.3719   19.1499 C   0  0  0  0  0  0  0  0  0  0  0  0
   -1.7471   13.8492   18.7411 C   0  0  0  0  0  0  0  0  0  0  0  0
   -2.9746   14.3104   17.9476 C   0  0  0  0  0  0  0  0  0  0  0  0
   -3.2576   15.8107   17.9317 C   0  0  0  0  0  0  0  0  0  0  0  0
   -4.2870   16.3036   16.9074 C   0  0  0  0  0  0  0  0  0  0  0  0
   -4.3955   17.8292   16.7897 C   0  0  0  0  0  0  0  0  0  0  0  0
   -4.1045   19.8391   15.2425 C   0  0  0  0  0  0  0  0  0  0  0  0
   -3.5897   18.4674   15.6556 C   0  0  0  0  0  0  0  0  0  0  0  0
   -2.6290    8.3149   18.7152 C   0  0  0  0  0  0  0  0  0  0  0  0
   -1.5809    7.2402   19.0303 C   0  0  0  0  0  0  0  0  0  0  0  0
   -2.0566    6.2246   20.0802 C   0  0  0  0  0  0  0  0  0  0  0  0
   -3.2564    5.3333   19.6701 C   0  0  0  0  0  0  0  0  0  0  0  0
   -3.5520    4.3008   20.7891 C   0  0  0  0  0  0  0  0  0  0  0  0
   -2.9287    4.5291   18.3952 C   0  0  0  0  0  0  0  0  0  0  0  0
   -4.5764    6.1626   19.4895 C   0  0  0  0  0  0  0  0  0  0  0  0
   -5.9454    5.5374   19.0705 C   0  0  0  0  0  0  0  0  0  0  0  0
   -6.0316    5.6380   17.5260 C   0  0  0  0  0  0  0  0  0  0  0  0
   -6.0298    4.0396   19.4215 C   0  0  0  0  0  0  0  0  0  0  0  0
   -7.1630    6.2662   19.6493 C   0  0  0  0  0  0  0  0  0  0  0  0
 10 11  1  0
 11  9  1  0
  9  8  1  0
  8  7  1  0
  7  6  1  0
  6  5  1  0
  5  4  1  0
  4  3  1  0
  3  2  1  0
  2  1  1  0
  1 12  1  0
 12 13  1  0
 13 14  1  0
 14 15  1  0
 15 16  1  0
 15 17  1  0
 15 18  1  0
 18 19  1  0
 19 20  1  0
 19 21  1  0
 19 22  1  0
M  END
> <minimizedAffinity>
-6.60051

> <CNNscore>
0.6359289885

> <CNNaffinity>
6.7200608253

> <CNN_VS>
4.2734813690

> <CNNaffinity_variance>
0.6881048679

$$$$



 22 21  0  0  0  0  0  0  0  0999 V2000
   -2.9695   10.5441   18.0885 C   0  0  0  0  0  0  0  0  0  0  0  0
   -3.0659   11.6856   19.1050 C   0  0  0  0  0  0  0  0  0  0  0  0
   -1.7916   12.5292   19.1933 C   0  0  0  0  0  0  0  0  0  0  0  0
   -2.0455   13.9631   18.7206 C   0  0  0  0  0  0  0  0  0  0  0  0
   -3.1501   14.0745   17.6637 C   0  0  0  0  0  0  0  0  0  0  0  0
   -3.1672   15.3916   16.8800 C   0  0  0  0  0  0  0  0  0  0  0  0
   -3.5540   16.6477   17.6572 C   0  0  0  0  0  0  0  0  0  0  0  0
   -4.3726   17.6990   16.8979 C   0  0  0  0  0  0  0  0  0  0  0  0
   -3.5370   18.7491   16.1547 C   0  0  0  0  0  0  0  0  0  0  0  0
   -4.6692   20.6090   14.8217 C   0  0  0  0  0  0  0  0  0  0  0  0
   -4.0895   19.2017   14.8010 C   0  0  0  0  0  0  0  0  0  0  0  0
   -3.1411    9.1312   18.6559 C   0  0  0  0  0  0  0  0  0  0  0  0
   -1.8771    8.2625   18.6766 C   0  0  0  0  0  0  0  0  0  0  0  0
   -1.8786    7.2240   19.8088 C   0  0  0  0  0  0  0  0  0  0  0  0
   -2.1094    5.7522   19.3818 C   0  0  0  0  0  0  0  0  0  0  0  0
   -0.7474    5.0212   19.2544 C   0  0  0  0  0  0  0  0  0  0  0  0
   -2.7839    5.6849   17.9961 C   0  0  0  0  0  0  0  0  0  0  0  0
   -2.9321    4.9476   20.4486 C   0  0  0  0  0  0  0  0  0  0  0  0
   -2.9792    3.3873   20.5144 C   0  0  0  0  0  0  0  0  0  0  0  0
   -1.6792    2.9278   21.2227 C   0  0  0  0  0  0  0  0  0  0  0  0
   -4.1537    2.8790   21.3723 C   0  0  0  0  0  0  0  0  0  0  0  0
   -3.0207    2.7098   19.1404 C   0  0  0  0  0  0  0  0  0  0  0  0
 10 11  1  0
 11  9  1  0
  9  8  1  0
  8  7  1  0
  7  6  1  0
  6  5  1  0
  5  4  1  0
  4  3  1  0
  3  2  1  0
  2  1  1  0
  1 12  1  0
 12 13  1  0
 13 14  1  0
 14 15  1  0
 15 16  1  0
 15 17  1  0
 15 18  1  0
 18 19  1  0
 19 20  1  0
 19 21  1  0
 19 22  1  0
M  END
> <minimizedAffinity>
-6.03037

> <CNNscore>
0.6344836354

> <CNNaffinity>
6.2632198334

> <CNN_VS>
3.9739105701

> <CNNaffinity_variance>
0.8272702694

$$$$



 22 21  0  0  0  0  0  0  0  0999 V2000
   -1.9502    8.3606   19.6842 C   0  0  0  0  0  0  0  0  0  0  0  0
   -2.1944    8.7042   18.2119 C   0  0  0  0  0  0  0  0  0  0  0  0
   -2.0864   10.2014   17.9120 C   0  0  0  0  0  0  0  0  0  0  0  0
   -1.9526   11.0143   19.2025 C   0  0  0  0  0  0  0  0  0  0  0  0
   -2.3600   12.4838   19.0473 C   0  0  0  0  0  0  0  0  0  0  0  0
   -3.4264   12.7518   17.9796 C   0  0  0  0  0  0  0  0  0  0  0  0
   -3.6613   14.2107   17.5951 C   0  0  0  0  0  0  0  0  0  0  0  0
   -2.4589   15.1546   17.7188 C   0  0  0  0  0  0  0  0  0  0  0  0
   -2.8206   16.6307   17.9276 C   0  0  0  0  0  0  0  0  0  0  0  0
   -3.8752   18.4011   16.4205 C   0  0  0  0  0  0  0  0  0  0  0  0
   -4.0815   17.1144   17.2073 C   0  0  0  0  0  0  0  0  0  0  0  0
   -2.2463    6.9124   20.0878 C   0  0  0  0  0  0  0  0  0  0  0  0
   -1.8862    5.8433   19.0485 C   0  0  0  0  0  0  0  0  0  0  0  0
   -2.9568    5.6776   17.9592 C   0  0  0  0  0  0  0  0  0  0  0  0
   -4.2195    4.8745   18.3627 C   0  0  0  0  0  0  0  0  0  0  0  0
   -5.4347    5.8304   18.4849 C   0  0  0  0  0  0  0  0  0  0  0  0
   -4.0289    4.2150   19.7442 C   0  0  0  0  0  0  0  0  0  0  0  0
   -4.6159    3.8099   17.2801 C   0  0  0  0  0  0  0  0  0  0  0  0
   -3.7010    2.6154   16.8595 C   0  0  0  0  0  0  0  0  0  0  0  0
   -4.4197    1.3181   17.3106 C   0  0  0  0  0  0  0  0  0  0  0  0
   -3.5375    2.5216   15.3304 C   0  0  0  0  0  0  0  0  0  0  0  0
   -2.3183    2.6308   17.5202 C   0  0  0  0  0  0  0  0  0  0  0  0
 10 11  1  0
 11  9  1  0
  9  8  1  0
  8  7  1  0
  7  6  1  0
  6  5  1  0
  5  4  1  0
  4  3  1  0
  3  2  1  0
  2  1  1  0
  1 12  1  0
 12 13  1  0
 13 14  1  0
 14 15  1  0
 15 16  1  0
 15 17  1  0
 15 18  1  0
 18 19  1  0
 19 20  1  0
 19 21  1  0
 19 22  1  0
M  END
> <minimizedAffinity>
-6.50725

> <CNNscore>
0.6155934334

> <CNNaffinity>
6.3175277710

> <CNN_VS>
3.8890285492

> <CNNaffinity_variance>
0.6789650321

$$$$



 22 21  0  0  0  0  0  0  0  0999 V2000
   -2.1630    8.9165   18.0859 C   0  0  0  0  0  0  0  0  0  0  0  0
   -2.3540    9.6032   19.4414 C   0  0  0  0  0  0  0  0  0  0  0  0
   -2.4705   11.1261   19.3394 C   0  0  0  0  0  0  0  0  0  0  0  0
   -3.8617   11.5416   18.8536 C   0  0  0  0  0  0  0  0  0  0  0  0
   -3.8331   12.5356   17.6871 C   0  0  0  0  0  0  0  0  0  0  0  0
   -3.0075   13.8028   17.9352 C   0  0  0  0  0  0  0  0  0  0  0  0
   -3.3541   15.0247   17.0877 C   0  0  0  0  0  0  0  0  0  0  0  0
   -3.5388   16.3495   17.8378 C   0  0  0  0  0  0  0  0  0  0  0  0
   -3.0748   17.5928   17.0683 C   0  0  0  0  0  0  0  0  0  0  0  0
   -3.6335   19.2652   15.2220 C   0  0  0  0  0  0  0  0  0  0  0  0
   -4.1693   18.3592   16.3217 C   0  0  0  0  0  0  0  0  0  0  0  0
   -2.2171    7.3853   18.1018 C   0  0  0  0  0  0  0  0  0  0  0  0
   -1.4997    6.7046   19.2743 C   0  0  0  0  0  0  0  0  0  0  0  0
   -1.3643    5.1846   19.0968 C   0  0  0  0  0  0  0  0  0  0  0  0
   -2.6704    4.3633   19.2438 C   0  0  0  0  0  0  0  0  0  0  0  0
   -3.2753    4.0812   17.8437 C   0  0  0  0  0  0  0  0  0  0  0  0
   -3.7290    5.1580   20.0360 C   0  0  0  0  0  0  0  0  0  0  0  0
   -2.4170    2.9582   19.8947 C   0  0  0  0  0  0  0  0  0  0  0  0
   -3.5562    2.0146   20.3972 C   0  0  0  0  0  0  0  0  0  0  0  0
   -2.9950    0.5702   20.3551 C   0  0  0  0  0  0  0  0  0  0  0  0
   -3.9388    2.2978   21.8625 C   0  0  0  0  0  0  0  0  0  0  0  0
   -4.8167    2.0457   19.5260 C   0  0  0  0  0  0  0  0  0  0  0  0
 10 11  1  0
 11  9  1  0
  9  8  1  0
  8  7  1  0
  7  6  1  0
  6  5  1  0
  5  4  1  0
  4  3  1  0
  3  2  1  0
  2  1  1  0
  1 12  1  0
 12 13  1  0
 13 14  1  0
 14 15  1  0
 15 16  1  0
 15 17  1  0
 15 18  1  0
 18 19  1  0
 19 20  1  0
 19 21  1  0
 19 22  1  0
M  END
> <minimizedAffinity>
-5.77156

> <CNNscore>
0.6003503799

> <CNNaffinity>
6.1441898346

> <CNN_VS>
3.6886668205

> <CNNaffinity_variance>
0.6360878348

$$$$



 22 21  0  0  0  0  0  0  0  0999 V2000
   -2.4729    7.0885   20.0026 C   0  0  0  0  0  0  0  0  0  0  0  0
   -2.1521    8.5557   19.7028 C   0  0  0  0  0  0  0  0  0  0  0  0
   -2.0688    8.8654   18.2060 C   0  0  0  0  0  0  0  0  0  0  0  0
   -2.6098   10.2649   17.9013 C   0  0  0  0  0  0  0  0  0  0  0  0
   -1.7475   11.3947   18.4753 C   0  0  0  0  0  0  0  0  0  0  0  0
   -2.4875   12.7141   18.7216 C   0  0  0  0  0  0  0  0  0  0  0  0
   -3.6076   13.0654   17.7452 C   0  0  0  0  0  0  0  0  0  0  0  0
   -3.7953   14.5531   17.4235 C   0  0  0  0  0  0  0  0  0  0  0  0
   -2.7556   15.4837   18.0609 C   0  0  0  0  0  0  0  0  0  0  0  0
   -4.2836   17.3126   17.1453 C   0  0  0  0  0  0  0  0  0  0  0  0
   -2.9450   16.9778   17.7881 C   0  0  0  0  0  0  0  0  0  0  0  0
   -3.8810    6.6229   19.6175 C   0  0  0  0  0  0  0  0  0  0  0  0
   -3.9784    5.7777   18.3412 C   0  0  0  0  0  0  0  0  0  0  0  0
   -4.1014    4.2726   18.6236 C   0  0  0  0  0  0  0  0  0  0  0  0
   -4.1019    3.3451   17.3819 C   0  0  0  0  0  0  0  0  0  0  0  0
   -2.9849    3.7814   16.3983 C   0  0  0  0  0  0  0  0  0  0  0  0
   -5.4378    3.4554   16.6184 C   0  0  0  0  0  0  0  0  0  0  0  0
   -3.7882    1.8537   17.7559 C   0  0  0  0  0  0  0  0  0  0  0  0
   -3.4072    0.7569   16.7106 C   0  0  0  0  0  0  0  0  0  0  0  0
   -4.3545   -0.4456   16.9552 C   0  0  0  0  0  0  0  0  0  0  0  0
   -3.6524    1.2258   15.2636 C   0  0  0  0  0  0  0  0  0  0  0  0
   -1.9686    0.2460   16.8443 C   0  0  0  0  0  0  0  0  0  0  0  0
 10 11  1  0
 11  9  1  0
  9  8  1  0
  8  7  1  0
  7  6  1  0
  6  5  1  0
  5  4  1  0
  4  3  1  0
  3  2  1  0
  2  1  1  0
  1 12  1  0
 12 13  1  0
 13 14  1  0
 14 15  1  0
 15 16  1  0
 15 17  1  0
 15 18  1  0
 18 19  1  0
 19 20  1  0
 19 21  1  0
 19 22  1  0
M  END
> <minimizedAffinity>
-5.85965

> <CNNscore>
0.5938028097

> <CNNaffinity>
6.0376229286

> <CNN_VS>
3.5851573944

> <CNNaffinity_variance>
0.5828937292

$$$$



 22 21  0  0  0  0  0  0  0  0999 V2000
   -6.4220    6.3348   19.9999 C   0  0  0  0  0  0  0  0  0  0  0  0
   -5.8859    6.5800   18.5864 C   0  0  0  0  0  0  0  0  0  0  0  0
   -4.3662    6.4306   18.4791 C   0  0  0  0  0  0  0  0  0  0  0  0
   -3.6497    7.3620   19.4606 C   0  0  0  0  0  0  0  0  0  0  0  0
   -2.5753    8.2362   18.8041 C   0  0  0  0  0  0  0  0  0  0  0  0
   -2.7331    9.7427   19.0379 C   0  0  0  0  0  0  0  0  0  0  0  0
   -3.2967   10.5618   17.8790 C   0  0  0  0  0  0  0  0  0  0  0  0
   -3.4090   12.0752   18.0999 C   0  0  0  0  0  0  0  0  0  0  0  0
   -2.1365   12.7415   18.6383 C   0  0  0  0  0  0  0  0  0  0  0  0
   -3.2536   14.8622   17.7594 C   0  0  0  0  0  0  0  0  0  0  0  0
   -2.1015   14.2696   18.5585 C   0  0  0  0  0  0  0  0  0  0  0  0
   -7.8463    6.8326   20.2672 C   0  0  0  0  0  0  0  0  0  0  0  0
   -8.9512    5.7723   20.1783 C   0  0  0  0  0  0  0  0  0  0  0  0
   -9.2900    5.1403   21.5369 C   0  0  0  0  0  0  0  0  0  0  0  0
   -8.9012    3.6500   21.7101 C   0  0  0  0  0  0  0  0  0  0  0  0
   -9.9366    2.7485   20.9884 C   0  0  0  0  0  0  0  0  0  0  0  0
   -8.9216    3.2498   23.1997 C   0  0  0  0  0  0  0  0  0  0  0  0
   -7.5131    3.3199   21.0569 C   0  0  0  0  0  0  0  0  0  0  0  0
   -6.8064    1.9313   21.1720 C   0  0  0  0  0  0  0  0  0  0  0  0
   -5.4454    2.1762   21.8725 C   0  0  0  0  0  0  0  0  0  0  0  0
   -7.5935    0.9530   22.0648 C   0  0  0  0  0  0  0  0  0  0  0  0
   -6.5175    1.2687   19.8206 C   0  0  0  0  0  0  0  0  0  0  0  0
 10 11  1  0
 11  9  1  0
  9  8  1  0
  8  7  1  0
  7  6  1  0
  6  5  1  0
  5  4  1  0
  4  3  1  0
  3  2  1  0
  2  1  1  0
  1 12  1  0
 12 13  1  0
 13 14  1  0
 14 15  1  0
 15 16  1  0
 15 17  1  0
 15 18  1  0
 18 19  1  0
 19 20  1  0
 19 21  1  0
 19 22  1  0
M  END
> <minimizedAffinity>
-5.53795

> <CNNscore>
0.5808287859

> <CNNaffinity>
6.4377579689

> <CNN_VS>
3.7392351627

> <CNNaffinity_variance>
0.2541571558

$$$$



 22 21  0  0  0  0  0  0  0  0999 V2000
   -2.3507    8.9292   19.6782 C   0  0  0  0  0  0  0  0  0  0  0  0
   -2.3278    9.0003   18.1485 C   0  0  0  0  0  0  0  0  0  0  0  0
   -2.0594   10.4080   17.6102 C   0  0  0  0  0  0  0  0  0  0  0  0
   -2.5092   11.4762   18.6106 C   0  0  0  0  0  0  0  0  0  0  0  0
   -3.8248   12.1624   18.2257 C   0  0  0  0  0  0  0  0  0  0  0  0
   -3.6697   13.5312   17.5537 C   0  0  0  0  0  0  0  0  0  0  0  0
   -2.5656   14.4385   18.0912 C   0  0  0  0  0  0  0  0  0  0  0  0
   -2.7772   15.9483   17.9251 C   0  0  0  0  0  0  0  0  0  0  0  0
   -3.9920   16.3361   17.0725 C   0  0  0  0  0  0  0  0  0  0  0  0
   -3.7693   18.6246   15.9628 C   0  0  0  0  0  0  0  0  0  0  0  0
   -4.3782   17.8170   17.1004 C   0  0  0  0  0  0  0  0  0  0  0  0
   -2.3272    7.5201   20.2795 C   0  0  0  0  0  0  0  0  0  0  0  0
   -1.2980    6.5551   19.6778 C   0  0  0  0  0  0  0  0  0  0  0  0
   -1.8384    5.1269   19.5087 C   0  0  0  0  0  0  0  0  0  0  0  0
   -3.1793    4.9930   18.7432 C   0  0  0  0  0  0  0  0  0  0  0  0
   -3.5261    3.4940   18.5470 C   0  0  0  0  0  0  0  0  0  0  0  0
   -3.0690    5.6141   17.3355 C   0  0  0  0  0  0  0  0  0  0  0  0
   -4.3810    5.6125   19.5398 C   0  0  0  0  0  0  0  0  0  0  0  0
   -5.8749    5.4796   19.1022 C   0  0  0  0  0  0  0  0  0  0  0  0
   -6.6000    6.7626   19.5831 C   0  0  0  0  0  0  0  0  0  0  0  0
   -6.0276    5.4334   17.5698 C   0  0  0  0  0  0  0  0  0  0  0  0
   -6.5986    4.2800   19.7233 C   0  0  0  0  0  0  0  0  0  0  0  0
 10 11  1  0
 11  9  1  0
  9  8  1  0
  8  7  1  0
  7  6  1  0
  6  5  1  0
  5  4  1  0
  4  3  1  0
  3  2  1  0
  2  1  1  0
  1 12  1  0
 12 13  1  0
 13 14  1  0
 14 15  1  0
 15 16  1  0
 15 17  1  0
 15 18  1  0
 18 19  1  0
 19 20  1  0
 19 21  1  0
 19 22  1  0
M  END
> <minimizedAffinity>
-6.92797

> <CNNscore>
0.5753540397

> <CNNaffinity>
6.6640338898

> <CNN_VS>
3.8341789246

> <CNNaffinity_variance>
0.7482231259

$$$$
