


 27 28  0  0  0  0  0  0  0  0999 V2000
   90.6619   97.1560  -44.8457 C   0  0  0  0  0  0  0  0  0  0  0  0
   90.7618   95.9999  -45.6310 C   0  0  0  0  0  0  0  0  0  0  0  0
   91.1503   94.7757  -45.0692 C   0  0  0  0  0  0  0  0  0  0  0  0
   91.4393   94.6858  -43.6943 C   0  0  0  0  0  0  0  0  0  0  0  0
   91.9122   93.1452  -43.0332 Cl  0  0  0  0  0  0  0  0  0  0  0  0
   91.3390   95.8356  -42.8915 C   0  0  0  0  0  0  0  0  0  0  0  0
   91.7640   95.7914  -40.8098 I   0  0  0  0  0  0  0  0  0  0  0  0
   90.9557   97.0575  -43.4739 C   0  0  0  0  0  0  0  0  0  0  0  0
   90.8774   98.1838  -42.6920 O   0  0  0  0  0  0  0  0  0  0  0  0
   91.0703   98.1329  -41.7765 H   0  0  0  0  0  0  0  0  0  0  0  0
   91.2317   93.6412  -45.9458 C   0  0  0  0  0  0  0  0  0  0  0  0
   91.3044   92.6878  -46.6733 C   0  0  0  0  0  0  0  0  0  0  0  0
   91.3859   91.5189  -47.5474 C   0  0  0  0  0  0  0  0  0  0  0  0
   92.7033   90.9838  -47.5108 O   0  0  0  0  0  0  0  0  0  0  0  0
   93.3337   91.6555  -47.8148 H   0  0  0  0  0  0  0  0  0  0  0  0
   90.1670   98.4424  -45.4841 C   0  0  0  0  0  0  0  0  0  0  0  0
   91.7823  101.7875  -45.2495 C   0  0  0  0  0  0  0  0  0  0  0  0
   92.3904  100.4835  -44.6975 C   0  0  0  0  0  0  0  0  0  0  0  0
   92.4346   99.3236  -45.6933 C   0  0  0  0  0  0  0  0  0  0  0  0
   91.1645   99.0569  -46.3844 N   0  0  0  0  0  0  0  0  0  0  0  0
   90.6742  100.2886  -47.0336 C   0  0  0  0  0  0  0  0  0  0  0  0
   90.5318  101.4887  -46.0987 C   0  0  0  0  0  0  0  0  0  0  0  0
   92.6756  102.7407  -45.9524 N   0  0  0  0  0  0  0  0  0  0  0  0
   93.4606  104.9594  -45.0718 C   0  0  0  0  0  0  0  0  0  0  0  0
   92.3735  104.1650  -45.7938 C   0  0  0  0  0  0  0  0  0  0  0  0
   92.9716  102.3293  -47.3354 C   0  0  0  0  0  0  0  0  0  0  0  0
   92.6839  103.3651  -48.4169 C   0  0  0  0  0  0  0  0  0  0  0  0
 24 25  1  0
 25 23  1  0
 23 26  1  0
 26 27  1  0
 23 17  1  0
 17 18  1  0
 18 19  1  0
 19 20  1  0
 20 16  1  0
 16  1  1  0
  1  2  2  0
  2  3  1  0
  3 11  1  0
 11 12  3  0
 12 13  1  0
 13 14  1  0
  3  4  2  0
  4  5  1  0
  4  6  1  0
  6  7  1  0
  6  8  2  0
  8  9  1  0
 20 21  1  0
 21 22  1  0
 22 17  1  0
  8  1  1  0
 14 15  1  0
  9 10  1  0
M  END
> <minimizedAffinity>
-5.46295

> <CNNscore>
0.6481137276

> <CNNaffinity>
5.3880171776

> <CNN_VS>
3.4920477867

> <CNNaffinity_variance>
0.1573595703

$$$$



 27 28  0  0  0  0  0  0  0  0999 V2000
   90.6200   97.2514  -43.2488 C   0  0  0  0  0  0  0  0  0  0  0  0
   90.0823   97.1599  -44.5394 C   0  0  0  0  0  0  0  0  0  0  0  0
   90.2429   95.9992  -45.3089 C   0  0  0  0  0  0  0  0  0  0  0  0
   90.9444   94.8948  -44.7893 C   0  0  0  0  0  0  0  0  0  0  0  0
   91.1164   93.4685  -45.7743 Cl  0  0  0  0  0  0  0  0  0  0  0  0
   91.4858   94.9686  -43.4939 C   0  0  0  0  0  0  0  0  0  0  0  0
   92.5651   93.3521  -42.6349 I   0  0  0  0  0  0  0  0  0  0  0  0
   91.3221   96.1444  -42.7391 C   0  0  0  0  0  0  0  0  0  0  0  0
   91.8686   96.2220  -41.4816 O   0  0  0  0  0  0  0  0  0  0  0  0
   92.3389   95.4922  -41.1293 H   0  0  0  0  0  0  0  0  0  0  0  0
   89.6640   95.9908  -46.6230 C   0  0  0  0  0  0  0  0  0  0  0  0
   89.1843   95.9769  -47.7245 C   0  0  0  0  0  0  0  0  0  0  0  0
   88.5954   95.9454  -49.0621 C   0  0  0  0  0  0  0  0  0  0  0  0
   89.1830   96.9590  -49.8687 O   0  0  0  0  0  0  0  0  0  0  0  0
   89.0196   97.8268  -49.4673 H   0  0  0  0  0  0  0  0  0  0  0  0
   90.3579   98.5010  -42.4258 C   0  0  0  0  0  0  0  0  0  0  0  0
   90.6512  101.9797  -41.1353 C   0  0  0  0  0  0  0  0  0  0  0  0
   91.8420  101.0268  -41.3555 C   0  0  0  0  0  0  0  0  0  0  0  0
   91.8945  100.3729  -42.7370 C   0  0  0  0  0  0  0  0  0  0  0  0
   90.6365   99.7467  -43.1698 N   0  0  0  0  0  0  0  0  0  0  0  0
   89.5329  100.7240  -43.0923 C   0  0  0  0  0  0  0  0  0  0  0  0
   89.3590  101.3820  -41.7244 C   0  0  0  0  0  0  0  0  0  0  0  0
   90.8002  103.4001  -41.5368 N   0  0  0  0  0  0  0  0  0  0  0  0
   91.2658  104.1273  -43.8966 C   0  0  0  0  0  0  0  0  0  0  0  0
   91.8240  103.6961  -42.5414 C   0  0  0  0  0  0  0  0  0  0  0  0
   90.7880  104.3209  -40.3872 C   0  0  0  0  0  0  0  0  0  0  0  0
   90.5718  103.6805  -39.0202 C   0  0  0  0  0  0  0  0  0  0  0  0
 24 25  1  0
 25 23  1  0
 23 26  1  0
 26 27  1  0
 23 17  1  0
 17 18  1  0
 18 19  1  0
 19 20  1  0
 20 16  1  0
 16  1  1  0
  1  2  2  0
  2  3  1  0
  3 11  1  0
 11 12  3  0
 12 13  1  0
 13 14  1  0
  3  4  2  0
  4  5  1  0
  4  6  1  0
  6  7  1  0
  6  8  2  0
  8  9  1  0
 20 21  1  0
 21 22  1  0
 22 17  1  0
  8  1  1  0
 14 15  1  0
  9 10  1  0
M  END
> <minimizedAffinity>
-4.65205

> <CNNscore>
0.5635763407

> <CNNaffinity>
5.1481480598

> <CNN_VS>
2.9013743401

> <CNNaffinity_variance>
0.4066220522

$$$$



 27 28  0  0  0  0  0  0  0  0999 V2000
   90.3684   96.9638  -45.1622 C   0  0  0  0  0  0  0  0  0  0  0  0
   90.5435   95.7610  -45.8591 C   0  0  0  0  0  0  0  0  0  0  0  0
   91.0676   94.6268  -45.2233 C   0  0  0  0  0  0  0  0  0  0  0  0
   91.4201   94.6762  -43.8613 C   0  0  0  0  0  0  0  0  0  0  0  0
   92.0618   93.2437  -43.1061 Cl  0  0  0  0  0  0  0  0  0  0  0  0
   91.2458   95.8742  -43.1464 C   0  0  0  0  0  0  0  0  0  0  0  0
   91.7585   96.0391  -41.0907 I   0  0  0  0  0  0  0  0  0  0  0  0
   90.7263   97.0049  -43.8027 C   0  0  0  0  0  0  0  0  0  0  0  0
   90.5752   98.1797  -43.1079 O   0  0  0  0  0  0  0  0  0  0  0  0
   90.8096   98.2216  -42.2017 H   0  0  0  0  0  0  0  0  0  0  0  0
   91.2186   93.4363  -46.0119 C   0  0  0  0  0  0  0  0  0  0  0  0
   91.3520   92.4382  -46.6673 C   0  0  0  0  0  0  0  0  0  0  0  0
   91.5137   91.2152  -47.4516 C   0  0  0  0  0  0  0  0  0  0  0  0
   92.8918   90.8701  -47.5229 O   0  0  0  0  0  0  0  0  0  0  0  0
   93.3839   91.5901  -47.9475 H   0  0  0  0  0  0  0  0  0  0  0  0
   89.7294   98.1439  -45.8739 C   0  0  0  0  0  0  0  0  0  0  0  0
   86.4119   99.6760  -45.1664 C   0  0  0  0  0  0  0  0  0  0  0  0
   87.3422  100.1015  -46.3187 C   0  0  0  0  0  0  0  0  0  0  0  0
   87.8435   98.9539  -47.1967 C   0  0  0  0  0  0  0  0  0  0  0  0
   88.4122   97.8169  -46.4580 N   0  0  0  0  0  0  0  0  0  0  0  0
   87.4427   97.3287  -45.4575 C   0  0  0  0  0  0  0  0  0  0  0  0
   86.9352   98.3951  -44.4883 C   0  0  0  0  0  0  0  0  0  0  0  0
   84.9574   99.5668  -45.4370 N   0  0  0  0  0  0  0  0  0  0  0  0
   84.8524  101.9572  -44.6692 C   0  0  0  0  0  0  0  0  0  0  0  0
   84.1935  100.8164  -45.4428 C   0  0  0  0  0  0  0  0  0  0  0  0
   84.3212   98.4654  -44.6943 C   0  0  0  0  0  0  0  0  0  0  0  0
   83.5136   98.8672  -43.4647 C   0  0  0  0  0  0  0  0  0  0  0  0
 24 25  1  0
 25 23  1  0
 23 26  1  0
 26 27  1  0
 23 17  1  0
 17 18  1  0
 18 19  1  0
 19 20  1  0
 20 16  1  0
 16  1  1  0
  1  2  2  0
  2  3  1  0
  3 11  1  0
 11 12  3  0
 12 13  1  0
 13 14  1  0
  3  4  2  0
  4  5  1  0
  4  6  1  0
  6  7  1  0
  6  8  2  0
  8  9  1  0
 20 21  1  0
 21 22  1  0
 22 17  1  0
  8  1  1  0
 14 15  1  0
  9 10  1  0
M  END
> <minimizedAffinity>
-5.75776

> <CNNscore>
0.4939262867

> <CNNaffinity>
5.4457278252

> <CNN_VS>
2.6897881031

> <CNNaffinity_variance>
0.2165912241

$$$$



 27 28  0  0  0  0  0  0  0  0999 V2000
   86.4084   99.2561  -45.2297 C   0  0  0  0  0  0  0  0  0  0  0  0
   85.3750  100.0751  -44.7559 C   0  0  0  0  0  0  0  0  0  0  0  0
   84.0345   99.6765  -44.8529 C   0  0  0  0  0  0  0  0  0  0  0  0
   83.7034   98.4329  -45.4237 C   0  0  0  0  0  0  0  0  0  0  0  0
   82.0266   97.9712  -45.5199 Cl  0  0  0  0  0  0  0  0  0  0  0  0
   84.7290   97.5971  -45.8992 C   0  0  0  0  0  0  0  0  0  0  0  0
   84.3186   95.7079  -46.7816 I   0  0  0  0  0  0  0  0  0  0  0  0
   86.0682   98.0169  -45.8013 C   0  0  0  0  0  0  0  0  0  0  0  0
   87.0672   97.2079  -46.2842 O   0  0  0  0  0  0  0  0  0  0  0  0
   86.8552   96.3797  -46.6676 H   0  0  0  0  0  0  0  0  0  0  0  0
   83.0376  100.5779  -44.3471 C   0  0  0  0  0  0  0  0  0  0  0  0
   82.2080  101.3330  -43.9166 C   0  0  0  0  0  0  0  0  0  0  0  0
   81.2097  102.2627  -43.3914 C   0  0  0  0  0  0  0  0  0  0  0  0
   80.1731  101.5367  -42.7421 O   0  0  0  0  0  0  0  0  0  0  0  0
   79.7502  100.9385  -43.3779 H   0  0  0  0  0  0  0  0  0  0  0  0
   87.8489   99.6979  -45.0367 C   0  0  0  0  0  0  0  0  0  0  0  0
   89.5882  101.6216  -42.3670 C   0  0  0  0  0  0  0  0  0  0  0  0
   88.0876  101.2716  -42.3545 C   0  0  0  0  0  0  0  0  0  0  0  0
   87.7702   99.7955  -42.5982 C   0  0  0  0  0  0  0  0  0  0  0  0
   88.4344   99.2087  -43.7715 N   0  0  0  0  0  0  0  0  0  0  0  0
   89.8920   99.4263  -43.6883 C   0  0  0  0  0  0  0  0  0  0  0  0
   90.3098  100.8854  -43.5122 C   0  0  0  0  0  0  0  0  0  0  0  0
   90.3528  101.4965  -41.1019 N   0  0  0  0  0  0  0  0  0  0  0  0
   90.0262  103.9601  -40.7301 C   0  0  0  0  0  0  0  0  0  0  0  0
   90.1788  102.5682  -40.1190 C   0  0  0  0  0  0  0  0  0  0  0  0
   91.7513  101.0887  -41.3200 C   0  0  0  0  0  0  0  0  0  0  0  0
   92.7199  101.3871  -40.1806 C   0  0  0  0  0  0  0  0  0  0  0  0
 24 25  1  0
 25 23  1  0
 23 26  1  0
 26 27  1  0
 23 17  1  0
 17 18  1  0
 18 19  1  0
 19 20  1  0
 20 16  1  0
 16  1  1  0
  1  2  2  0
  2  3  1  0
  3 11  1  0
 11 12  3  0
 12 13  1  0
 13 14  1  0
  3  4  2  0
  4  5  1  0
  4  6  1  0
  6  7  1  0
  6  8  2  0
  8  9  1  0
 20 21  1  0
 21 22  1  0
 22 17  1  0
  8  1  1  0
 14 15  1  0
  9 10  1  0
M  END
> <minimizedAffinity>
-3.61286

> <CNNscore>
0.3266006708

> <CNNaffinity>
4.2656369209

> <CNN_VS>
1.3931598663

> <CNNaffinity_variance>
1.1254137754

$$$$



 27 28  0  0  0  0  0  0  0  0999 V2000
   84.1564   89.0305  -45.8453 C   0  0  0  0  0  0  0  0  0  0  0  0
   84.3562   88.9158  -44.4632 C   0  0  0  0  0  0  0  0  0  0  0  0
   84.1907   87.6875  -43.8083 C   0  0  0  0  0  0  0  0  0  0  0  0
   83.8276   86.5385  -44.5361 C   0  0  0  0  0  0  0  0  0  0  0  0
   83.6383   85.0296  -43.6867 Cl  0  0  0  0  0  0  0  0  0  0  0  0
   83.6284   86.6355  -45.9245 C   0  0  0  0  0  0  0  0  0  0  0  0
   83.0718   84.9540  -47.0987 I   0  0  0  0  0  0  0  0  0  0  0  0
   83.7907   87.8781  -46.5639 C   0  0  0  0  0  0  0  0  0  0  0  0
   83.5764   87.9752  -47.9169 O   0  0  0  0  0  0  0  0  0  0  0  0
   83.3323   87.2157  -48.4082 H   0  0  0  0  0  0  0  0  0  0  0  0
   84.4106   87.6588  -42.3895 C   0  0  0  0  0  0  0  0  0  0  0  0
   84.5935   87.6433  -41.2021 C   0  0  0  0  0  0  0  0  0  0  0  0
   84.8022   87.6312  -39.7553 C   0  0  0  0  0  0  0  0  0  0  0  0
   84.3404   88.8539  -39.1940 O   0  0  0  0  0  0  0  0  0  0  0  0
   84.8326   89.5942  -39.5823 H   0  0  0  0  0  0  0  0  0  0  0  0
   84.4184   90.3652  -46.5216 C   0  0  0  0  0  0  0  0  0  0  0  0
   83.8817   93.9604  -47.3216 C   0  0  0  0  0  0  0  0  0  0  0  0
   84.1973   92.8713  -48.3651 C   0  0  0  0  0  0  0  0  0  0  0  0
   83.3059   91.6309  -48.2887 C   0  0  0  0  0  0  0  0  0  0  0  0
   83.1779   91.0468  -46.9454 N   0  0  0  0  0  0  0  0  0  0  0  0
   82.7293   92.0764  -45.9874 C   0  0  0  0  0  0  0  0  0  0  0  0
   83.6018   93.3299  -45.9438 C   0  0  0  0  0  0  0  0  0  0  0  0
   82.8514   94.9757  -47.6505 N   0  0  0  0  0  0  0  0  0  0  0  0
   84.6986   96.2753  -48.7519 C   0  0  0  0  0  0  0  0  0  0  0  0
   83.2048   95.9655  -48.6705 C   0  0  0  0  0  0  0  0  0  0  0  0
   82.2030   95.5373  -46.4531 C   0  0  0  0  0  0  0  0  0  0  0  0
   82.3216   97.0471  -46.2748 C   0  0  0  0  0  0  0  0  0  0  0  0
 24 25  1  0
 25 23  1  0
 23 26  1  0
 26 27  1  0
 23 17  1  0
 17 18  1  0
 18 19  1  0
 19 20  1  0
 20 16  1  0
 16  1  1  0
  1  2  2  0
  2  3  1  0
  3 11  1  0
 11 12  3  0
 12 13  1  0
 13 14  1  0
  3  4  2  0
  4  5  1  0
  4  6  1  0
  6  7  1  0
  6  8  2  0
  8  9  1  0
 20 21  1  0
 21 22  1  0
 22 17  1  0
  8  1  1  0
 14 15  1  0
  9 10  1  0
M  END
> <minimizedAffinity>
-3.70285

> <CNNscore>
0.2737661898

> <CNNaffinity>
4.8222026825

> <CNN_VS>
1.3201560974

> <CNNaffinity_variance>
0.0361264385

$$$$



 27 28  0  0  0  0  0  0  0  0999 V2000
   90.3323   99.4955  -43.1603 C   0  0  0  0  0  0  0  0  0  0  0  0
   90.8320   98.2607  -42.7261 C   0  0  0  0  0  0  0  0  0  0  0  0
   90.7504   97.1215  -43.5391 C   0  0  0  0  0  0  0  0  0  0  0  0
   90.1692   97.2031  -44.8187 C   0  0  0  0  0  0  0  0  0  0  0  0
   90.0927   95.7667  -45.8010 Cl  0  0  0  0  0  0  0  0  0  0  0  0
   89.6675   98.4361  -45.2713 C   0  0  0  0  0  0  0  0  0  0  0  0
   88.7677   98.6472  -47.1849 I   0  0  0  0  0  0  0  0  0  0  0  0
   89.7503   99.5670  -44.4386 C   0  0  0  0  0  0  0  0  0  0  0  0
   89.2421  100.7660  -44.8745 O   0  0  0  0  0  0  0  0  0  0  0  0
   88.8515  100.8283  -45.7239 H   0  0  0  0  0  0  0  0  0  0  0  0
   91.2828   95.8950  -43.0154 C   0  0  0  0  0  0  0  0  0  0  0  0
   91.7340   94.8686  -42.5835 C   0  0  0  0  0  0  0  0  0  0  0  0
   92.2971   93.6268  -42.0564 C   0  0  0  0  0  0  0  0  0  0  0  0
   93.2090   93.9219  -41.0054 O   0  0  0  0  0  0  0  0  0  0  0  0
   93.9260   94.4792  -41.3464 H   0  0  0  0  0  0  0  0  0  0  0  0
   90.5089  100.7169  -42.2745 C   0  0  0  0  0  0  0  0  0  0  0  0
   91.9651  103.5213  -40.3077 C   0  0  0  0  0  0  0  0  0  0  0  0
   91.5383  102.1660  -39.7115 C   0  0  0  0  0  0  0  0  0  0  0  0
   92.0991  100.9408  -40.4350 C   0  0  0  0  0  0  0  0  0  0  0  0
   91.9173  100.9509  -41.8941 N   0  0  0  0  0  0  0  0  0  0  0  0
   92.4692  102.1960  -42.4633 C   0  0  0  0  0  0  0  0  0  0  0  0
   91.9146  103.4794  -41.8472 C   0  0  0  0  0  0  0  0  0  0  0  0
   93.2367  104.1278  -39.8430 N   0  0  0  0  0  0  0  0  0  0  0  0
   93.8594  103.9222  -37.4173 C   0  0  0  0  0  0  0  0  0  0  0  0
   93.9949  103.3785  -38.8386 C   0  0  0  0  0  0  0  0  0  0  0  0
   93.1117  105.5688  -39.5645 C   0  0  0  0  0  0  0  0  0  0  0  0
   91.6988  106.0786  -39.3017 C   0  0  0  0  0  0  0  0  0  0  0  0
 24 25  1  0
 25 23  1  0
 23 26  1  0
 26 27  1  0
 23 17  1  0
 17 18  1  0
 18 19  1  0
 19 20  1  0
 20 16  1  0
 16  1  1  0
  1  2  2  0
  2  3  1  0
  3 11  1  0
 11 12  3  0
 12 13  1  0
 13 14  1  0
  3  4  2  0
  4  5  1  0
  4  6  1  0
  6  7  1  0
  6  8  2  0
  8  9  1  0
 20 21  1  0
 21 22  1  0
 22 17  1  0
  8  1  1  0
 14 15  1  0
  9 10  1  0
M  END
> <minimizedAffinity>
-4.91900

> <CNNscore>
0.2384158224

> <CNNaffinity>
5.2849106789

> <CNN_VS>
1.2600063086

> <CNNaffinity_variance>
0.0517008640

$$$$



 27 28  0  0  0  0  0  0  0  0999 V2000
   85.5464   98.3517  -44.5848 C   0  0  0  0  0  0  0  0  0  0  0  0
   86.9304   98.5178  -44.4430 C   0  0  0  0  0  0  0  0  0  0  0  0
   87.8251   97.9382  -45.3533 C   0  0  0  0  0  0  0  0  0  0  0  0
   87.3430   97.1821  -46.4385 C   0  0  0  0  0  0  0  0  0  0  0  0
   88.4868   96.4839  -47.5513 Cl  0  0  0  0  0  0  0  0  0  0  0  0
   85.9568   97.0101  -46.5979 C   0  0  0  0  0  0  0  0  0  0  0  0
   85.1435   95.8784  -48.2022 I   0  0  0  0  0  0  0  0  0  0  0  0
   85.0739   97.5920  -45.6700 C   0  0  0  0  0  0  0  0  0  0  0  0
   83.7211   97.4065  -45.8161 O   0  0  0  0  0  0  0  0  0  0  0  0
   83.3921   96.9026  -46.5343 H   0  0  0  0  0  0  0  0  0  0  0  0
   89.2274   98.1541  -45.1318 C   0  0  0  0  0  0  0  0  0  0  0  0
   90.3992   98.3431  -44.9453 C   0  0  0  0  0  0  0  0  0  0  0  0
   91.8217   98.5789  -44.7043 C   0  0  0  0  0  0  0  0  0  0  0  0
   92.5072   98.6851  -45.9461 O   0  0  0  0  0  0  0  0  0  0  0  0
   92.3996   97.8610  -46.4463 H   0  0  0  0  0  0  0  0  0  0  0  0
   84.6141   99.0588  -43.6161 C   0  0  0  0  0  0  0  0  0  0  0  0
   84.4749  102.6060  -42.4975 C   0  0  0  0  0  0  0  0  0  0  0  0
   85.4701  102.0570  -43.5380 C   0  0  0  0  0  0  0  0  0  0  0  0
   84.8348  101.2498  -44.6711 C   0  0  0  0  0  0  0  0  0  0  0  0
   83.9046  100.1992  -44.2319 N   0  0  0  0  0  0  0  0  0  0  0  0
   82.8688  100.7767  -43.3529 C   0  0  0  0  0  0  0  0  0  0  0  0
   83.4107  101.5472  -42.1499 C   0  0  0  0  0  0  0  0  0  0  0  0
   83.8387  103.9213  -42.7546 N   0  0  0  0  0  0  0  0  0  0  0  0
   85.8689  105.3923  -42.9230 C   0  0  0  0  0  0  0  0  0  0  0  0
   84.5933  104.8673  -43.5796 C   0  0  0  0  0  0  0  0  0  0  0  0
   83.2383  104.5093  -41.5450 C   0  0  0  0  0  0  0  0  0  0  0  0
   84.0148  104.3085  -40.2480 C   0  0  0  0  0  0  0  0  0  0  0  0
 24 25  1  0
 25 23  1  0
 23 26  1  0
 26 27  1  0
 23 17  1  0
 17 18  1  0
 18 19  1  0
 19 20  1  0
 20 16  1  0
 16  1  1  0
  1  2  2  0
  2  3  1  0
  3 11  1  0
 11 12  3  0
 12 13  1  0
 13 14  1  0
  3  4  2  0
  4  5  1  0
  4  6  1  0
  6  7  1  0
  6  8  2  0
  8  9  1  0
 20 21  1  0
 21 22  1  0
 22 17  1  0
  8  1  1  0
 14 15  1  0
  9 10  1  0
M  END
> <minimizedAffinity>
-3.62378

> <CNNscore>
0.2197722048

> <CNNaffinity>
4.4571495056

> <CNN_VS>
0.9795575738

> <CNNaffinity_variance>
0.6361336708

$$$$



 27 28  0  0  0  0  0  0  0  0999 V2000
   87.1397   99.6039  -43.4134 C   0  0  0  0  0  0  0  0  0  0  0  0
   88.0827  100.2846  -42.6320 C   0  0  0  0  0  0  0  0  0  0  0  0
   89.4513  100.0013  -42.7405 C   0  0  0  0  0  0  0  0  0  0  0  0
   89.9044   99.0273  -43.6504 C   0  0  0  0  0  0  0  0  0  0  0  0
   91.6134   98.7091  -43.7601 Cl  0  0  0  0  0  0  0  0  0  0  0  0
   88.9715   98.3388  -44.4455 C   0  0  0  0  0  0  0  0  0  0  0  0
   89.5672   96.8487  -45.8385 I   0  0  0  0  0  0  0  0  0  0  0  0
   87.6011   98.6302  -44.3174 C   0  0  0  0  0  0  0  0  0  0  0  0
   86.6896   97.9428  -45.0806 O   0  0  0  0  0  0  0  0  0  0  0  0
   86.9828   97.2914  -45.6870 H   0  0  0  0  0  0  0  0  0  0  0  0
   90.3493  100.7418  -41.8995 C   0  0  0  0  0  0  0  0  0  0  0  0
   91.0978  101.3571  -41.1890 C   0  0  0  0  0  0  0  0  0  0  0  0
   92.0149  102.0923  -40.3199 C   0  0  0  0  0  0  0  0  0  0  0  0
   93.2482  101.3906  -40.2211 O   0  0  0  0  0  0  0  0  0  0  0  0
   93.0899  100.5096  -39.8474 H   0  0  0  0  0  0  0  0  0  0  0  0
   85.6756   99.9963  -43.3135 C   0  0  0  0  0  0  0  0  0  0  0  0
   82.4984  101.9207  -43.0789 C   0  0  0  0  0  0  0  0  0  0  0  0
   83.4500  101.6588  -41.8955 C   0  0  0  0  0  0  0  0  0  0  0  0
   84.9150  102.0093  -42.1597 C   0  0  0  0  0  0  0  0  0  0  0  0
   85.4653  101.4558  -43.4058 N   0  0  0  0  0  0  0  0  0  0  0  0
   84.6171  101.8452  -44.5494 C   0  0  0  0  0  0  0  0  0  0  0  0
   83.1423  101.4730  -44.4052 C   0  0  0  0  0  0  0  0  0  0  0  0
   81.9002  103.2710  -43.2182 N   0  0  0  0  0  0  0  0  0  0  0  0
   82.0430  105.0331  -41.4324 C   0  0  0  0  0  0  0  0  0  0  0  0
   82.6683  104.3909  -42.6696 C   0  0  0  0  0  0  0  0  0  0  0  0
   80.4650  103.2947  -42.8878 C   0  0  0  0  0  0  0  0  0  0  0  0
   79.7679  101.9393  -42.8391 C   0  0  0  0  0  0  0  0  0  0  0  0
 24 25  1  0
 25 23  1  0
 23 26  1  0
 26 27  1  0
 23 17  1  0
 17 18  1  0
 18 19  1  0
 19 20  1  0
 20 16  1  0
 16  1  1  0
  1  2  2  0
  2  3  1  0
  3 11  1  0
 11 12  3  0
 12 13  1  0
 13 14  1  0
  3  4  2  0
  4  5  1  0
  4  6  1  0
  6  7  1  0
  6  8  2  0
  8  9  1  0
 20 21  1  0
 21 22  1  0
 22 17  1  0
  8  1  1  0
 14 15  1  0
  9 10  1  0
M  END
> <minimizedAffinity>
-3.86099

> <CNNscore>
0.1704080254

> <CNNaffinity>
4.3591709137

> <CNN_VS>
0.7428377271

> <CNNaffinity_variance>
0.2115247250

$$$$



 27 28  0  0  0  0  0  0  0  0999 V2000
   85.6965   99.0135  -44.1744 C   0  0  0  0  0  0  0  0  0  0  0  0
   86.9816   99.0570  -43.6180 C   0  0  0  0  0  0  0  0  0  0  0  0
   88.0695   98.4519  -44.2628 C   0  0  0  0  0  0  0  0  0  0  0  0
   87.8881   97.7943  -45.4943 C   0  0  0  0  0  0  0  0  0  0  0  0
   89.2661   97.0608  -46.2670 Cl  0  0  0  0  0  0  0  0  0  0  0  0
   86.6057   97.7461  -46.0686 C   0  0  0  0  0  0  0  0  0  0  0  0
   86.2411   96.7683  -47.9197 I   0  0  0  0  0  0  0  0  0  0  0  0
   85.5241   98.3515  -45.4032 C   0  0  0  0  0  0  0  0  0  0  0  0
   84.2686   98.2865  -45.9559 O   0  0  0  0  0  0  0  0  0  0  0  0
   84.1390   97.8486  -46.7741 H   0  0  0  0  0  0  0  0  0  0  0  0
   89.3513   98.5393  -43.6215 C   0  0  0  0  0  0  0  0  0  0  0  0
   90.4276   98.6133  -43.0926 C   0  0  0  0  0  0  0  0  0  0  0  0
   91.7392   98.7175  -42.4557 C   0  0  0  0  0  0  0  0  0  0  0  0
   91.7029   99.7165  -41.4438 O   0  0  0  0  0  0  0  0  0  0  0  0
   91.4712  100.5706  -41.8409 H   0  0  0  0  0  0  0  0  0  0  0  0
   84.5636   99.7456  -43.4758 C   0  0  0  0  0  0  0  0  0  0  0  0
   82.4006  102.3796  -41.9800 C   0  0  0  0  0  0  0  0  0  0  0  0
   83.7248  101.8848  -41.3666 C   0  0  0  0  0  0  0  0  0  0  0  0
   84.9135  101.8727  -42.3288 C   0  0  0  0  0  0  0  0  0  0  0  0
   84.6555  101.2134  -43.6175 N   0  0  0  0  0  0  0  0  0  0  0  0
   83.4657  101.8066  -44.2591 C   0  0  0  0  0  0  0  0  0  0  0  0
   82.2059  101.8011  -43.3948 C   0  0  0  0  0  0  0  0  0  0  0  0
   82.1175  103.8357  -41.9675 N   0  0  0  0  0  0  0  0  0  0  0  0
   81.0968  103.9425  -39.6738 C   0  0  0  0  0  0  0  0  0  0  0  0
   82.1236  104.4962  -40.6602 C   0  0  0  0  0  0  0  0  0  0  0  0
   80.9826  104.2024  -42.8318 C   0  0  0  0  0  0  0  0  0  0  0  0
   81.1842  105.4290  -43.7151 C   0  0  0  0  0  0  0  0  0  0  0  0
 24 25  1  0
 25 23  1  0
 23 26  1  0
 26 27  1  0
 23 17  1  0
 17 18  1  0
 18 19  1  0
 19 20  1  0
 20 16  1  0
 16  1  1  0
  1  2  2  0
  2  3  1  0
  3 11  1  0
 11 12  3  0
 12 13  1  0
 13 14  1  0
  3  4  2  0
  4  5  1  0
  4  6  1  0
  6  7  1  0
  6  8  2  0
  8  9  1  0
 20 21  1  0
 21 22  1  0
 22 17  1  0
  8  1  1  0
 14 15  1  0
  9 10  1  0
M  END
> <minimizedAffinity>
-3.88303

> <CNNscore>
0.1665651798

> <CNNaffinity>
4.1690583229

> <CNN_VS>
0.6944199204

> <CNNaffinity_variance>
0.3424656093

$$$$
