


 27 28  0  0  0  0  0  0  0  0999 V2000
   37.7168   -0.6701   11.8166 C   0  0  0  0  0  0  0  0  0  0  0  0
   38.9881   -0.8249   12.4919 O   0  0  0  0  0  0  0  0  0  0  0  0
   39.2329    0.4087   13.1910 C   0  0  0  0  0  0  0  0  0  0  0  0
   37.8605    0.9031   13.6226 C   0  0  0  0  0  0  0  0  0  0  0  0
   37.0362    0.6045   12.3772 C   0  0  0  0  0  0  0  0  0  0  0  0
   35.6519    0.4410   12.6792 O   0  0  0  0  0  0  0  0  0  0  0  0
   35.5450   -0.2687   13.3317 H   0  0  0  0  0  0  0  0  0  0  0  0
   34.4649   -5.0315   12.4229 O   0  0  0  0  0  0  0  0  0  0  0  0
   35.2187   -4.0737   12.2932 C   0  0  0  0  0  0  0  0  0  0  0  0
   35.0170   -3.1039   11.3466 N   0  0  0  0  0  0  0  0  0  0  0  0
   35.7957   -1.9909   11.1424 C   0  0  0  0  0  0  0  0  0  0  0  0
   35.4835   -1.1706   10.2817 O   0  0  0  0  0  0  0  0  0  0  0  0
   36.9276   -1.8895   11.9474 N   0  0  0  0  0  0  0  0  0  0  0  0
   37.1889   -2.8115   12.9455 C   0  0  0  0  0  0  0  0  0  0  0  0
   36.4070   -3.8719   13.1421 C   0  0  0  0  0  0  0  0  0  0  0  0
   36.6482   -4.7776   14.1075 F   0  0  0  0  0  0  0  0  0  0  0  0
   34.2380   -3.2157   10.7551 H   0  0  0  0  0  0  0  0  0  0  0  0
   40.1996    0.1766   14.3477 C   0  0  0  0  0  0  0  0  0  0  0  0
   39.7745    0.8812   15.5116 O   0  0  0  0  0  0  0  0  0  0  0  0
   39.7485    1.8322   15.3225 H   0  0  0  0  0  0  0  0  0  0  0  0
   37.9125    2.2865   13.9265 O   0  0  0  0  0  0  0  0  0  0  0  0
   36.7374    3.2559   13.4468 P   0  0  0  0  0  0  0  0  0  0  0  0
   36.7371    3.6268   12.0071 O   0  0  0  0  0  0  0  0  0  0  0  0
   36.7939    4.5127   14.4214 O   0  0  0  0  0  0  0  0  0  0  0  0
   35.3887    2.5263   13.8987 O   0  0  0  0  0  0  0  0  0  0  0  0
   37.5886    5.0349   14.2300 H   0  0  0  0  0  0  0  0  0  0  0  0
   35.2544    1.7317   13.3587 H   0  0  0  0  0  0  0  0  0  0  0  0
  8  9  2  0
  9 10  1  0
 10 11  1  0
 11 12  2  0
 11 13  1  0
  1 13  1  0
  1  2  1  0
  2  3  1  0
  3 18  1  0
 18 19  1  0
  3  4  1  0
  4 21  1  0
 21 22  1  0
 22 23  2  0
 22 24  1  0
 22 25  1  0
  4  5  1  0
  5  6  1  0
 13 14  1  0
 14 15  2  0
 15 16  1  0
 15  9  1  0
  5  1  1  0
 10 17  1  0
 19 20  1  0
 24 26  1  0
 25 27  1  0
  6  7  1  0
M  END
> <minimizedAffinity>
-7.03964

> <CNNscore>
0.9257324934

> <CNNaffinity>
4.8632545471

> <CNN_VS>
4.5020728111

> <CNNaffinity_variance>
0.0486689173

$$$$



 27 28  0  0  0  0  0  0  0  0999 V2000
   37.4916   -2.4632   11.8396 C   0  0  0  0  0  0  0  0  0  0  0  0
   38.8555   -2.9205   11.6756 O   0  0  0  0  0  0  0  0  0  0  0  0
   39.6834   -2.0169   12.4296 C   0  0  0  0  0  0  0  0  0  0  0  0
   38.8421   -1.6112   13.6304 C   0  0  0  0  0  0  0  0  0  0  0  0
   37.4789   -1.4142   12.9803 C   0  0  0  0  0  0  0  0  0  0  0  0
   36.4130   -1.5807   13.9132 O   0  0  0  0  0  0  0  0  0  0  0  0
   36.4700   -2.4616   14.3154 H   0  0  0  0  0  0  0  0  0  0  0  0
   33.9166   -6.4961   12.7981 O   0  0  0  0  0  0  0  0  0  0  0  0
   34.7411   -5.6149   12.5839 C   0  0  0  0  0  0  0  0  0  0  0  0
   34.4924   -4.5673   11.7365 N   0  0  0  0  0  0  0  0  0  0  0  0
   35.3462   -3.5295   11.4524 C   0  0  0  0  0  0  0  0  0  0  0  0
   34.9869   -2.6248   10.7017 O   0  0  0  0  0  0  0  0  0  0  0  0
   36.6029   -3.6006   12.0482 N   0  0  0  0  0  0  0  0  0  0  0  0
   36.9242   -4.6104   12.9381 C   0  0  0  0  0  0  0  0  0  0  0  0
   36.0719   -5.5951   13.2180 C   0  0  0  0  0  0  0  0  0  0  0  0
   36.3697   -6.5844   14.0799 F   0  0  0  0  0  0  0  0  0  0  0  0
   33.6163   -4.5575   11.2875 H   0  0  0  0  0  0  0  0  0  0  0  0
   41.0016   -2.6908   12.7962 C   0  0  0  0  0  0  0  0  0  0  0  0
   40.7828   -3.7754   13.6950 O   0  0  0  0  0  0  0  0  0  0  0  0
   40.3737   -3.4430   14.5093 H   0  0  0  0  0  0  0  0  0  0  0  0
   39.3524   -0.4201   14.2048 O   0  0  0  0  0  0  0  0  0  0  0  0
   38.8632    1.0015   13.6661 P   0  0  0  0  0  0  0  0  0  0  0  0
   37.4047    1.2741   13.7599 O   0  0  0  0  0  0  0  0  0  0  0  0
   39.4318    1.1171   12.1842 O   0  0  0  0  0  0  0  0  0  0  0  0
   39.7456    2.0714   14.4611 O   0  0  0  0  0  0  0  0  0  0  0  0
   38.9574    0.4987   11.6067 H   0  0  0  0  0  0  0  0  0  0  0  0
   39.4769    2.0835   15.3931 H   0  0  0  0  0  0  0  0  0  0  0  0
  8  9  2  0
  9 10  1  0
 10 11  1  0
 11 12  2  0
 11 13  1  0
  1 13  1  0
  1  2  1  0
  2  3  1  0
  3 18  1  0
 18 19  1  0
  3  4  1  0
  4 21  1  0
 21 22  1  0
 22 23  2  0
 22 24  1  0
 22 25  1  0
  4  5  1  0
  5  6  1  0
 13 14  1  0
 14 15  2  0
 15 16  1  0
 15  9  1  0
  5  1  1  0
 10 17  1  0
 19 20  1  0
 24 26  1  0
 25 27  1  0
  6  7  1  0
M  END
> <minimizedAffinity>
-5.37872

> <CNNscore>
0.8409430981

> <CNNaffinity>
4.9908161163

> <CNN_VS>
4.1969923973

> <CNNaffinity_variance>
0.1207896397

$$$$



 27 28  0  0  0  0  0  0  0  0999 V2000
   37.2977   -2.5307   11.9485 C   0  0  0  0  0  0  0  0  0  0  0  0
   38.5353   -2.7561   12.6653 O   0  0  0  0  0  0  0  0  0  0  0  0
   38.9250   -1.4861   13.2183 C   0  0  0  0  0  0  0  0  0  0  0  0
   37.6207   -0.7805   13.5578 C   0  0  0  0  0  0  0  0  0  0  0  0
   36.7751   -1.1247   12.3386 C   0  0  0  0  0  0  0  0  0  0  0  0
   35.3790   -1.0815   12.6273 O   0  0  0  0  0  0  0  0  0  0  0  0
   35.1807   -1.6891   13.3569 H   0  0  0  0  0  0  0  0  0  0  0  0
   33.5237   -6.3602   12.9759 O   0  0  0  0  0  0  0  0  0  0  0  0
   34.3917   -5.5231   12.7563 C   0  0  0  0  0  0  0  0  0  0  0  0
   34.3542   -4.6958   11.6648 N   0  0  0  0  0  0  0  0  0  0  0  0
   35.2690   -3.7206   11.3504 C   0  0  0  0  0  0  0  0  0  0  0  0
   35.0997   -3.0146   10.3584 O   0  0  0  0  0  0  0  0  0  0  0  0
   36.3635   -3.6206   12.2056 N   0  0  0  0  0  0  0  0  0  0  0  0
   36.4633   -4.3995   13.3450 C   0  0  0  0  0  0  0  0  0  0  0  0
   35.5519   -5.3239   13.6439 C   0  0  0  0  0  0  0  0  0  0  0  0
   35.6353   -6.0897   14.7470 F   0  0  0  0  0  0  0  0  0  0  0  0
   33.5977   -4.8117   11.0454 H   0  0  0  0  0  0  0  0  0  0  0  0
   39.8471   -1.6927   14.4154 C   0  0  0  0  0  0  0  0  0  0  0  0
   39.2532   -1.1811   15.6060 O   0  0  0  0  0  0  0  0  0  0  0  0
   39.0939   -0.2296   15.5048 H   0  0  0  0  0  0  0  0  0  0  0  0
   37.8404    0.6129   13.6963 O   0  0  0  0  0  0  0  0  0  0  0  0
   37.0207    1.6457   12.7953 P   0  0  0  0  0  0  0  0  0  0  0  0
   37.6174    2.9981   12.6368 O   0  0  0  0  0  0  0  0  0  0  0  0
   35.5506    1.6728   13.4041 O   0  0  0  0  0  0  0  0  0  0  0  0
   36.8049    0.8966   11.3996 O   0  0  0  0  0  0  0  0  0  0  0  0
   35.5664    2.1139   14.2679 H   0  0  0  0  0  0  0  0  0  0  0  0
   37.6542    0.8245   10.9366 H   0  0  0  0  0  0  0  0  0  0  0  0
  8  9  2  0
  9 10  1  0
 10 11  1  0
 11 12  2  0
 11 13  1  0
  1 13  1  0
  1  2  1  0
  2  3  1  0
  3 18  1  0
 18 19  1  0
  3  4  1  0
  4 21  1  0
 21 22  1  0
 22 23  2  0
 22 24  1  0
 22 25  1  0
  4  5  1  0
  5  6  1  0
 13 14  1  0
 14 15  2  0
 15 16  1  0
 15  9  1  0
  5  1  1  0
 10 17  1  0
 19 20  1  0
 24 26  1  0
 25 27  1  0
  6  7  1  0
M  END
> <minimizedAffinity>
-7.39161

> <CNNscore>
0.8392068148

> <CNNaffinity>
5.0324730873

> <CNN_VS>
4.2232856750

> <CNNaffinity_variance>
0.0665018782

$$$$



 27 28  0  0  0  0  0  0  0  0999 V2000
   36.6306   -3.7123   13.3187 C   0  0  0  0  0  0  0  0  0  0  0  0
   36.0011   -2.4306   13.0799 O   0  0  0  0  0  0  0  0  0  0  0  0
   37.0360   -1.5475   12.6114 C   0  0  0  0  0  0  0  0  0  0  0  0
   37.9788   -2.4282   11.8054 C   0  0  0  0  0  0  0  0  0  0  0  0
   38.0443   -3.6698   12.6852 C   0  0  0  0  0  0  0  0  0  0  0  0
   38.3834   -4.8366   11.9382 O   0  0  0  0  0  0  0  0  0  0  0  0
   37.7381   -4.9630   11.2252 H   0  0  0  0  0  0  0  0  0  0  0  0
   33.1305   -7.5186   11.5226 O   0  0  0  0  0  0  0  0  0  0  0  0
   33.9334   -6.6899   11.9360 C   0  0  0  0  0  0  0  0  0  0  0  0
   34.2280   -5.5445   11.2442 N   0  0  0  0  0  0  0  0  0  0  0  0
   35.0963   -4.5559   11.6382 C   0  0  0  0  0  0  0  0  0  0  0  0
   35.2438   -3.5530   10.9426 O   0  0  0  0  0  0  0  0  0  0  0  0
   35.7767   -4.7891   12.8307 N   0  0  0  0  0  0  0  0  0  0  0  0
   35.5171   -5.9073   13.6034 C   0  0  0  0  0  0  0  0  0  0  0  0
   34.6528   -6.8431   13.2137 C   0  0  0  0  0  0  0  0  0  0  0  0
   34.3903   -7.9362   13.9531 F   0  0  0  0  0  0  0  0  0  0  0  0
   33.7728   -5.4178   10.3804 H   0  0  0  0  0  0  0  0  0  0  0  0
   36.4280   -0.3986   11.8136 C   0  0  0  0  0  0  0  0  0  0  0  0
   35.6709    0.4614   12.6616 O   0  0  0  0  0  0  0  0  0  0  0  0
   34.9490   -0.0412   13.0704 H   0  0  0  0  0  0  0  0  0  0  0  0
   39.2374   -1.7926   11.6603 O   0  0  0  0  0  0  0  0  0  0  0  0
   39.9289   -1.0905   12.9170 P   0  0  0  0  0  0  0  0  0  0  0  0
   39.4583   -1.5297   14.2571 O   0  0  0  0  0  0  0  0  0  0  0  0
   39.7698    0.4744   12.6748 O   0  0  0  0  0  0  0  0  0  0  0  0
   41.4973   -1.3169   12.7064 O   0  0  0  0  0  0  0  0  0  0  0  0
   38.8386    0.7248   12.7800 H   0  0  0  0  0  0  0  0  0  0  0  0
   41.7084   -2.2551   12.8333 H   0  0  0  0  0  0  0  0  0  0  0  0
  8  9  2  0
  9 10  1  0
 10 11  1  0
 11 12  2  0
 11 13  1  0
  1 13  1  0
  1  2  1  0
  2  3  1  0
  3 18  1  0
 18 19  1  0
  3  4  1  0
  4 21  1  0
 21 22  1  0
 22 23  2  0
 22 24  1  0
 22 25  1  0
  4  5  1  0
  5  6  1  0
 13 14  1  0
 14 15  2  0
 15 16  1  0
 15  9  1  0
  5  1  1  0
 10 17  1  0
 19 20  1  0
 24 26  1  0
 25 27  1  0
  6  7  1  0
M  END
> <minimizedAffinity>
-5.79002

> <CNNscore>
0.7207102180

> <CNNaffinity>
4.6829304695

> <CNN_VS>
3.3750357628

> <CNNaffinity_variance>
0.1568050534

$$$$



 27 28  0  0  0  0  0  0  0  0999 V2000
   37.4621   -1.5548   13.9533 C   0  0  0  0  0  0  0  0  0  0  0  0
   36.5305   -1.9770   12.9286 O   0  0  0  0  0  0  0  0  0  0  0  0
   36.2047   -0.8032   12.1630 C   0  0  0  0  0  0  0  0  0  0  0  0
   37.4741    0.0351   12.1563 C   0  0  0  0  0  0  0  0  0  0  0  0
   37.9374   -0.1229   13.5987 C   0  0  0  0  0  0  0  0  0  0  0  0
   39.3437    0.0741   13.7328 O   0  0  0  0  0  0  0  0  0  0  0  0
   39.8138   -0.5499   13.1579 H   0  0  0  0  0  0  0  0  0  0  0  0
   41.7218   -4.9448   14.5242 O   0  0  0  0  0  0  0  0  0  0  0  0
   40.7534   -4.2079   14.3777 C   0  0  0  0  0  0  0  0  0  0  0  0
   40.2663   -3.4257   15.3917 N   0  0  0  0  0  0  0  0  0  0  0  0
   39.2028   -2.5599   15.3131 C   0  0  0  0  0  0  0  0  0  0  0  0
   38.8883   -1.8811   16.2886 O   0  0  0  0  0  0  0  0  0  0  0  0
   38.5329   -2.5350   14.0925 N   0  0  0  0  0  0  0  0  0  0  0  0
   38.9769   -3.2734   13.0097 C   0  0  0  0  0  0  0  0  0  0  0  0
   40.0257   -4.0896   13.1010 C   0  0  0  0  0  0  0  0  0  0  0  0
   40.4690   -4.8148   12.0580 F   0  0  0  0  0  0  0  0  0  0  0  0
   40.7231   -3.4905   16.2614 H   0  0  0  0  0  0  0  0  0  0  0  0
   35.7165   -1.1986   10.7732 C   0  0  0  0  0  0  0  0  0  0  0  0
   34.4761   -1.8966   10.8521 O   0  0  0  0  0  0  0  0  0  0  0  0
   34.5926   -2.7049   11.3754 H   0  0  0  0  0  0  0  0  0  0  0  0
   37.1709    1.3789   11.8225 O   0  0  0  0  0  0  0  0  0  0  0  0
   36.8067    2.4263   12.9718 P   0  0  0  0  0  0  0  0  0  0  0  0
   37.8500    2.6581   14.0052 O   0  0  0  0  0  0  0  0  0  0  0  0
   35.4193    1.9339   13.5763 O   0  0  0  0  0  0  0  0  0  0  0  0
   36.3936    3.7627   12.1980 O   0  0  0  0  0  0  0  0  0  0  0  0
   35.5570    1.1135   14.0754 H   0  0  0  0  0  0  0  0  0  0  0  0
   37.1794    4.1527   11.7841 H   0  0  0  0  0  0  0  0  0  0  0  0
  8  9  2  0
  9 10  1  0
 10 11  1  0
 11 12  2  0
 11 13  1  0
  1 13  1  0
  1  2  1  0
  2  3  1  0
  3 18  1  0
 18 19  1  0
  3  4  1  0
  4 21  1  0
 21 22  1  0
 22 23  2  0
 22 24  1  0
 22 25  1  0
  4  5  1  0
  5  6  1  0
 13 14  1  0
 14 15  2  0
 15 16  1  0
 15  9  1  0
  5  1  1  0
 10 17  1  0
 19 20  1  0
 24 26  1  0
 25 27  1  0
  6  7  1  0
M  END
> <minimizedAffinity>
-6.45839

> <CNNscore>
0.7162104845

> <CNNaffinity>
5.3076643944

> <CNN_VS>
3.8014049530

> <CNNaffinity_variance>
0.6601524353

$$$$



 27 28  0  0  0  0  0  0  0  0999 V2000
   41.2234    5.6997    8.2389 C   0  0  0  0  0  0  0  0  0  0  0  0
   41.3947    6.7033    9.2684 O   0  0  0  0  0  0  0  0  0  0  0  0
   42.0528    6.0517   10.3695 C   0  0  0  0  0  0  0  0  0  0  0  0
   42.9754    5.0234    9.7323 C   0  0  0  0  0  0  0  0  0  0  0  0
   42.0810    4.4697    8.6309 C   0  0  0  0  0  0  0  0  0  0  0  0
   42.8376    3.9200    7.5540 O   0  0  0  0  0  0  0  0  0  0  0  0
   43.4312    4.5987    7.1963 H   0  0  0  0  0  0  0  0  0  0  0  0
   42.1413    7.5718    3.1776 O   0  0  0  0  0  0  0  0  0  0  0  0
   41.9656    7.1620    4.3194 C   0  0  0  0  0  0  0  0  0  0  0  0
   40.7664    7.2913    4.9692 N   0  0  0  0  0  0  0  0  0  0  0  0
   40.4747    6.8473    6.2359 C   0  0  0  0  0  0  0  0  0  0  0  0
   39.3423    6.9897    6.6925 O   0  0  0  0  0  0  0  0  0  0  0  0
   41.5321    6.2654    6.9307 N   0  0  0  0  0  0  0  0  0  0  0  0
   42.7670    6.0723    6.3370 C   0  0  0  0  0  0  0  0  0  0  0  0
   43.0218    6.4898    5.0979 C   0  0  0  0  0  0  0  0  0  0  0  0
   44.2173    6.3104    4.5072 F   0  0  0  0  0  0  0  0  0  0  0  0
   40.0432    7.7468    4.4806 H   0  0  0  0  0  0  0  0  0  0  0  0
   42.7748    7.0791   11.2352 C   0  0  0  0  0  0  0  0  0  0  0  0
   42.0542    8.3086   11.2685 O   0  0  0  0  0  0  0  0  0  0  0  0
   41.9815    8.6652   10.3694 H   0  0  0  0  0  0  0  0  0  0  0  0
   43.3438    4.0405   10.6848 O   0  0  0  0  0  0  0  0  0  0  0  0
   42.2542    3.0100   11.2337 P   0  0  0  0  0  0  0  0  0  0  0  0
   40.8933    3.5580   11.4746 O   0  0  0  0  0  0  0  0  0  0  0  0
   42.9044    2.3467   12.5259 O   0  0  0  0  0  0  0  0  0  0  0  0
   42.2594    1.8041   10.1843 O   0  0  0  0  0  0  0  0  0  0  0  0
   42.9502    3.0035   13.2382 H   0  0  0  0  0  0  0  0  0  0  0  0
   41.8770    2.1043    9.3449 H   0  0  0  0  0  0  0  0  0  0  0  0
  8  9  2  0
  9 10  1  0
 10 11  1  0
 11 12  2  0
 11 13  1  0
  1 13  1  0
  1  2  1  0
  2  3  1  0
  3 18  1  0
 18 19  1  0
  3  4  1  0
  4 21  1  0
 21 22  1  0
 22 23  2  0
 22 24  1  0
 22 25  1  0
  4  5  1  0
  5  6  1  0
 13 14  1  0
 14 15  2  0
 15 16  1  0
 15  9  1  0
  5  1  1  0
 10 17  1  0
 19 20  1  0
 24 26  1  0
 25 27  1  0
  6  7  1  0
M  END
> <minimizedAffinity>
-5.79068

> <CNNscore>
0.7061961889

> <CNNaffinity>
3.6248118877

> <CNN_VS>
2.5598282814

> <CNNaffinity_variance>
0.5774970055

$$$$



 27 28  0  0  0  0  0  0  0  0999 V2000
   38.4679   -0.1628   13.6946 C   0  0  0  0  0  0  0  0  0  0  0  0
   38.1589    1.2457   13.5648 O   0  0  0  0  0  0  0  0  0  0  0  0
   39.4190    1.9342   13.4722 C   0  0  0  0  0  0  0  0  0  0  0  0
   40.3414    0.9817   12.7264 C   0  0  0  0  0  0  0  0  0  0  0  0
   39.9720   -0.3484   13.3702 C   0  0  0  0  0  0  0  0  0  0  0  0
   40.2509   -1.4530   12.5121 O   0  0  0  0  0  0  0  0  0  0  0  0
   39.7744   -1.3404   11.6748 H   0  0  0  0  0  0  0  0  0  0  0  0
   34.8163   -2.8565   10.6330 O   0  0  0  0  0  0  0  0  0  0  0  0
   35.6473   -2.2816   11.3267 C   0  0  0  0  0  0  0  0  0  0  0  0
   36.2173   -1.0924   10.9553 N   0  0  0  0  0  0  0  0  0  0  0  0
   37.1385   -0.3711   11.6749 C   0  0  0  0  0  0  0  0  0  0  0  0
   37.5452    0.7076   11.2481 O   0  0  0  0  0  0  0  0  0  0  0  0
   37.5642   -0.9529   12.8664 N   0  0  0  0  0  0  0  0  0  0  0  0
   37.0184   -2.1382   13.3267 C   0  0  0  0  0  0  0  0  0  0  0  0
   36.1080   -2.8101   12.6236 C   0  0  0  0  0  0  0  0  0  0  0  0
   35.5687   -3.9641   13.0570 F   0  0  0  0  0  0  0  0  0  0  0  0
   35.9396   -0.7184   10.0880 H   0  0  0  0  0  0  0  0  0  0  0  0
   39.2340    3.2827   12.7841 C   0  0  0  0  0  0  0  0  0  0  0  0
   40.4953    3.8733   12.4807 O   0  0  0  0  0  0  0  0  0  0  0  0
   40.9915    4.0159   13.3019 H   0  0  0  0  0  0  0  0  0  0  0  0
   41.6951    1.3395   12.9465 O   0  0  0  0  0  0  0  0  0  0  0  0
   42.7646    1.1865   11.7704 P   0  0  0  0  0  0  0  0  0  0  0  0
   44.1084    0.6870   12.1642 O   0  0  0  0  0  0  0  0  0  0  0  0
   42.8064    2.6011   11.0425 O   0  0  0  0  0  0  0  0  0  0  0  0
   42.0528    0.2567   10.6822 O   0  0  0  0  0  0  0  0  0  0  0  0
   43.2268    3.2524   11.6256 H   0  0  0  0  0  0  0  0  0  0  0  0
   41.9748   -0.6457   11.0292 H   0  0  0  0  0  0  0  0  0  0  0  0
  8  9  2  0
  9 10  1  0
 10 11  1  0
 11 12  2  0
 11 13  1  0
  1 13  1  0
  1  2  1  0
  2  3  1  0
  3 18  1  0
 18 19  1  0
  3  4  1  0
  4 21  1  0
 21 22  1  0
 22 23  2  0
 22 24  1  0
 22 25  1  0
  4  5  1  0
  5  6  1  0
 13 14  1  0
 14 15  2  0
 15 16  1  0
 15  9  1  0
  5  1  1  0
 10 17  1  0
 19 20  1  0
 24 26  1  0
 25 27  1  0
  6  7  1  0
M  END
> <minimizedAffinity>
-5.20336

> <CNNscore>
0.6447783709

> <CNNaffinity>
4.2624497414

> <CNN_VS>
2.7483353615

> <CNNaffinity_variance>
0.0487384051

$$$$



 27 28  0  0  0  0  0  0  0  0999 V2000
   37.7861    0.2722   13.6377 C   0  0  0  0  0  0  0  0  0  0  0  0
   37.0646    1.5271   13.6088 O   0  0  0  0  0  0  0  0  0  0  0  0
   38.0565    2.5682   13.5576 C   0  0  0  0  0  0  0  0  0  0  0  0
   39.2024    1.9893   12.7415 C   0  0  0  0  0  0  0  0  0  0  0  0
   39.2672    0.5707   13.2924 C   0  0  0  0  0  0  0  0  0  0  0  0
   39.8424   -0.3398   12.3573 O   0  0  0  0  0  0  0  0  0  0  0  0
   39.3319   -0.3219   11.5327 H   0  0  0  0  0  0  0  0  0  0  0  0
   35.0393   -3.1740   10.3907 O   0  0  0  0  0  0  0  0  0  0  0  0
   35.6743   -2.4265   11.1259 C   0  0  0  0  0  0  0  0  0  0  0  0
   35.9329   -1.1213   10.7992 N   0  0  0  0  0  0  0  0  0  0  0  0
   36.6168   -0.2101   11.5665 C   0  0  0  0  0  0  0  0  0  0  0  0
   36.7475    0.9483   11.1763 O   0  0  0  0  0  0  0  0  0  0  0  0
   37.1401   -0.6980   12.7613 N   0  0  0  0  0  0  0  0  0  0  0  0
   36.9011   -1.9958   13.1777 C   0  0  0  0  0  0  0  0  0  0  0  0
   36.2146   -2.8570   12.4283 C   0  0  0  0  0  0  0  0  0  0  0  0
   35.9746   -4.1221   12.8186 F   0  0  0  0  0  0  0  0  0  0  0  0
   35.5957   -0.8058    9.9298 H   0  0  0  0  0  0  0  0  0  0  0  0
   37.4563    3.8399   12.9670 C   0  0  0  0  0  0  0  0  0  0  0  0
   36.3305    3.5350   12.1474 O   0  0  0  0  0  0  0  0  0  0  0  0
   36.6088    2.9614   11.4163 H   0  0  0  0  0  0  0  0  0  0  0  0
   40.3912    2.7238   12.9784 O   0  0  0  0  0  0  0  0  0  0  0  0
   41.4698    2.8979   11.8136 P   0  0  0  0  0  0  0  0  0  0  0  0
   41.6721    1.7243   10.9237 O   0  0  0  0  0  0  0  0  0  0  0  0
   42.8044    3.3802   12.5339 O   0  0  0  0  0  0  0  0  0  0  0  0
   41.0120    4.2067   11.0180 O   0  0  0  0  0  0  0  0  0  0  0  0
   43.1732    2.6494   13.0544 H   0  0  0  0  0  0  0  0  0  0  0  0
   40.1920    4.0208   10.5344 H   0  0  0  0  0  0  0  0  0  0  0  0
  8  9  2  0
  9 10  1  0
 10 11  1  0
 11 12  2  0
 11 13  1  0
  1 13  1  0
  1  2  1  0
  2  3  1  0
  3 18  1  0
 18 19  1  0
  3  4  1  0
  4 21  1  0
 21 22  1  0
 22 23  2  0
 22 24  1  0
 22 25  1  0
  4  5  1  0
  5  6  1  0
 13 14  1  0
 14 15  2  0
 15 16  1  0
 15  9  1  0
  5  1  1  0
 10 17  1  0
 19 20  1  0
 24 26  1  0
 25 27  1  0
  6  7  1  0
M  END
> <minimizedAffinity>
-6.40348

> <CNNscore>
0.6313964725

> <CNNaffinity>
4.4426550865

> <CNN_VS>
2.8050768375

> <CNNaffinity_variance>
0.1663627177

$$$$



 27 28  0  0  0  0  0  0  0  0999 V2000
   39.0568   -2.8010   12.7605 C   0  0  0  0  0  0  0  0  0  0  0  0
   39.4783   -2.3961   14.0851 O   0  0  0  0  0  0  0  0  0  0  0  0
   39.5288   -0.9582   14.0767 C   0  0  0  0  0  0  0  0  0  0  0  0
   38.4064   -0.5239   13.1462 C   0  0  0  0  0  0  0  0  0  0  0  0
   38.5515   -1.5375   12.0187 C   0  0  0  0  0  0  0  0  0  0  0  0
   37.3281   -1.7278   11.3106 O   0  0  0  0  0  0  0  0  0  0  0  0
   36.6366   -2.0097   11.9298 H   0  0  0  0  0  0  0  0  0  0  0  0
   35.4227   -6.8944   12.7292 O   0  0  0  0  0  0  0  0  0  0  0  0
   36.2226   -5.9664   12.7632 C   0  0  0  0  0  0  0  0  0  0  0  0
   37.5410   -6.1210   12.4239 N   0  0  0  0  0  0  0  0  0  0  0  0
   38.5001   -5.1376   12.4145 C   0  0  0  0  0  0  0  0  0  0  0  0
   39.6448   -5.3977   12.0495 O   0  0  0  0  0  0  0  0  0  0  0  0
   38.0835   -3.8831   12.8527 N   0  0  0  0  0  0  0  0  0  0  0  0
   36.7635   -3.6365   13.1869 C   0  0  0  0  0  0  0  0  0  0  0  0
   35.8437   -4.5999   13.1664 C   0  0  0  0  0  0  0  0  0  0  0  0
   34.5569   -4.3763   13.4894 F   0  0  0  0  0  0  0  0  0  0  0  0
   37.8291   -7.0250   12.1613 H   0  0  0  0  0  0  0  0  0  0  0  0
   39.3998   -0.4175   15.4971 C   0  0  0  0  0  0  0  0  0  0  0  0
   39.0624   -1.4614   16.4072 O   0  0  0  0  0  0  0  0  0  0  0  0
   38.2118   -1.8511   16.1513 H   0  0  0  0  0  0  0  0  0  0  0  0
   38.6176    0.8096   12.7146 O   0  0  0  0  0  0  0  0  0  0  0  0
   37.6035    1.9628   13.1532 P   0  0  0  0  0  0  0  0  0  0  0  0
   37.2653    2.9713   12.1147 O   0  0  0  0  0  0  0  0  0  0  0  0
   38.2245    2.6005   14.4725 O   0  0  0  0  0  0  0  0  0  0  0  0
   36.3182    1.1933   13.7112 O   0  0  0  0  0  0  0  0  0  0  0  0
   39.0246    3.0994   14.2448 H   0  0  0  0  0  0  0  0  0  0  0  0
   35.8563    0.7603   12.9763 H   0  0  0  0  0  0  0  0  0  0  0  0
  8  9  2  0
  9 10  1  0
 10 11  1  0
 11 12  2  0
 11 13  1  0
  1 13  1  0
  1  2  1  0
  2  3  1  0
  3 18  1  0
 18 19  1  0
  3  4  1  0
  4 21  1  0
 21 22  1  0
 22 23  2  0
 22 24  1  0
 22 25  1  0
  4  5  1  0
  5  6  1  0
 13 14  1  0
 14 15  2  0
 15 16  1  0
 15  9  1  0
  5  1  1  0
 10 17  1  0
 19 20  1  0
 24 26  1  0
 25 27  1  0
  6  7  1  0
M  END
> <minimizedAffinity>
-5.26813

> <CNNscore>
0.6109895706

> <CNNaffinity>
4.7298979759

> <CNN_VS>
2.8899183273

> <CNNaffinity_variance>
0.1190075055

$$$$
