


 19 20  0  0  0  0  0  0  0  0999 V2000
   31.9326   72.1363   13.5788 C   0  0  0  0  0  0  0  0  0  0  0  0
   33.2231   71.5939   14.2779 C   0  0  0  0  0  0  0  0  0  0  0  0
   34.2673   72.7030   14.5891 C   0  0  0  0  0  0  0  0  0  0  0  0
   33.6421   73.8319   15.4207 C   0  0  0  0  0  0  0  0  0  0  0  0
   32.3552   74.2739   14.7849 C   0  0  0  0  0  0  0  0  0  0  0  0
   31.7655   75.4743   14.8808 N   0  0  0  0  0  0  0  0  0  0  0  0
   30.6483   75.5364   14.0896 C   0  0  0  0  0  0  0  0  0  0  0  0
   30.5420   74.3133   13.4854 C   0  0  0  0  0  0  0  0  0  0  0  0
   31.5958   73.5342   13.9597 N   0  0  0  0  0  0  0  0  0  0  0  0
   32.0916   76.2126   15.4444 H   0  0  0  0  0  0  0  0  0  0  0  0
   33.8369   70.6513   13.3731 O   0  0  0  0  0  0  0  0  0  0  0  0
   33.8589   69.3171   13.8796 C   0  0  0  0  0  0  0  0  0  0  0  0
   35.3287   72.1302   15.3789 O   0  0  0  0  0  0  0  0  0  0  0  0
   34.8821   71.6554   16.6502 C   0  0  0  0  0  0  0  0  0  0  0  0
   34.4979   74.9804   15.5044 O   0  0  0  0  0  0  0  0  0  0  0  0
   34.6392   75.4818   16.8298 C   0  0  0  0  0  0  0  0  0  0  0  0
   30.7262   71.1982   13.8520 C   0  0  0  0  0  0  0  0  0  0  0  0
   28.8127   70.1270   12.9245 C   0  0  0  0  0  0  0  0  0  0  0  0
   29.7289   71.2140   12.8361 O   0  0  0  0  0  0  0  0  0  0  0  0
 18 19  1  0
 19 17  1  0
  1 17  1  0
  1  2  1  0
  2 11  1  0
 11 12  1  0
  2  3  1  0
  3 13  1  0
 13 14  1  0
  3  4  1  0
  4 15  1  0
 15 16  1  0
  4  5  1  0
  5  6  1  0
  6  7  1  0
  7  8  2  0
  8  9  1  0
  9  1  1  0
  9  5  2  0
  6 10  1  0
M  CHG 1   9   1
M  END
> <minimizedAffinity>
-3.94853

> <CNNscore>
0.3369907737

> <CNNaffinity>
2.7920570374

> <CNN_VS>
0.9408974648

> <CNNaffinity_variance>
1.6388101578

$$$$



 19 20  0  0  0  0  0  0  0  0999 V2000
   33.9590   68.8002   18.7491 C   0  0  0  0  0  0  0  0  0  0  0  0
   33.9397   68.5005   17.2136 C   0  0  0  0  0  0  0  0  0  0  0  0
   34.1484   69.7671   16.3363 C   0  0  0  0  0  0  0  0  0  0  0  0
   35.4414   70.4990   16.7227 C   0  0  0  0  0  0  0  0  0  0  0  0
   35.4862   70.6927   18.2113 C   0  0  0  0  0  0  0  0  0  0  0  0
   36.1376   71.6459   18.8930 N   0  0  0  0  0  0  0  0  0  0  0  0
   35.8722   71.5578   20.2346 C   0  0  0  0  0  0  0  0  0  0  0  0
   35.0239   70.4947   20.3852 C   0  0  0  0  0  0  0  0  0  0  0  0
   34.8254   69.9521   19.1168 N   0  0  0  0  0  0  0  0  0  0  0  0
   36.7280   72.3194   18.4843 H   0  0  0  0  0  0  0  0  0  0  0  0
   32.6404   67.9554   16.8995 O   0  0  0  0  0  0  0  0  0  0  0  0
   31.5694   68.8572   17.1769 C   0  0  0  0  0  0  0  0  0  0  0  0
   34.2853   69.3590   14.9603 O   0  0  0  0  0  0  0  0  0  0  0  0
   33.2132   69.8174   14.1348 C   0  0  0  0  0  0  0  0  0  0  0  0
   35.5308   71.7964   16.1167 O   0  0  0  0  0  0  0  0  0  0  0  0
   34.6339   71.9706   15.0243 C   0  0  0  0  0  0  0  0  0  0  0  0
   34.3756   67.5364   19.5486 C   0  0  0  0  0  0  0  0  0  0  0  0
   32.2272   67.6172   20.5720 C   0  0  0  0  0  0  0  0  0  0  0  0
   33.6089   67.3080   20.7263 O   0  0  0  0  0  0  0  0  0  0  0  0
 18 19  1  0
 19 17  1  0
  1 17  1  0
  1  2  1  0
  2 11  1  0
 11 12  1  0
  2  3  1  0
  3 13  1  0
 13 14  1  0
  3  4  1  0
  4 15  1  0
 15 16  1  0
  4  5  1  0
  5  6  1  0
  6  7  1  0
  7  8  2  0
  8  9  1  0
  9  1  1  0
  9  5  2  0
  6 10  1  0
M  CHG 1   9   1
M  END
> <minimizedAffinity>
-4.33308

> <CNNscore>
0.1689706892

> <CNNaffinity>
2.5188615322

> <CNN_VS>
0.4256137609

> <CNNaffinity_variance>
2.3466951847

$$$$



 19 20  0  0  0  0  0  0  0  0999 V2000
   32.7191   67.9720   17.3516 C   0  0  0  0  0  0  0  0  0  0  0  0
   33.0373   68.3772   18.8290 C   0  0  0  0  0  0  0  0  0  0  0  0
   34.4236   69.0614   18.9949 C   0  0  0  0  0  0  0  0  0  0  0  0
   34.5535   70.2772   18.0665 C   0  0  0  0  0  0  0  0  0  0  0  0
   34.1522   69.8920   16.6714 C   0  0  0  0  0  0  0  0  0  0  0  0
   34.5500   70.4544   15.5211 N   0  0  0  0  0  0  0  0  0  0  0  0
   34.0443   69.7761   14.4430 C   0  0  0  0  0  0  0  0  0  0  0  0
   33.2935   68.7534   14.9554 C   0  0  0  0  0  0  0  0  0  0  0  0
   33.3484   68.8667   16.3435 N   0  0  0  0  0  0  0  0  0  0  0  0
   35.1283   71.2488   15.4591 H   0  0  0  0  0  0  0  0  0  0  0  0
   33.0467   67.1654   19.6134 O   0  0  0  0  0  0  0  0  0  0  0  0
   32.0852   67.1700   20.6683 C   0  0  0  0  0  0  0  0  0  0  0  0
   34.5415   69.5448   20.3481 O   0  0  0  0  0  0  0  0  0  0  0  0
   35.6654   68.9962   21.0388 C   0  0  0  0  0  0  0  0  0  0  0  0
   35.8992   70.7712   18.0066 O   0  0  0  0  0  0  0  0  0  0  0  0
   36.0137   72.1399   18.3831 C   0  0  0  0  0  0  0  0  0  0  0  0
   31.1856   67.8971   17.1223 C   0  0  0  0  0  0  0  0  0  0  0  0
   30.4894   65.6851   17.6626 C   0  0  0  0  0  0  0  0  0  0  0  0
   30.7260   66.6413   16.6338 O   0  0  0  0  0  0  0  0  0  0  0  0
 18 19  1  0
 19 17  1  0
  1 17  1  0
  1  2  1  0
  2 11  1  0
 11 12  1  0
  2  3  1  0
  3 13  1  0
 13 14  1  0
  3  4  1  0
  4 15  1  0
 15 16  1  0
  4  5  1  0
  5  6  1  0
  6  7  1  0
  7  8  2  0
  8  9  1  0
  9  1  1  0
  9  5  2  0
  6 10  1  0
M  CHG 1   9   1
M  END
> <minimizedAffinity>
-4.16301

> <CNNscore>
0.1649000794

> <CNNaffinity>
3.0922815800

> <CNN_VS>
0.5099174976

> <CNNaffinity_variance>
1.2532747984

$$$$



 19 20  0  0  0  0  0  0  0  0999 V2000
   32.4446   68.6298   19.0243 C   0  0  0  0  0  0  0  0  0  0  0  0
   32.4673   69.2017   17.5681 C   0  0  0  0  0  0  0  0  0  0  0  0
   33.6531   70.1727   17.3062 C   0  0  0  0  0  0  0  0  0  0  0  0
   34.9954   69.5072   17.6410 C   0  0  0  0  0  0  0  0  0  0  0  0
   34.9224   68.8814   19.0043 C   0  0  0  0  0  0  0  0  0  0  0  0
   35.9354   68.6396   19.8488 N   0  0  0  0  0  0  0  0  0  0  0  0
   35.4735   68.1403   21.0386 C   0  0  0  0  0  0  0  0  0  0  0  0
   34.1128   68.0640   20.9161 C   0  0  0  0  0  0  0  0  0  0  0  0
   33.7968   68.4984   19.6301 N   0  0  0  0  0  0  0  0  0  0  0  0
   36.8845   68.7995   19.6418 H   0  0  0  0  0  0  0  0  0  0  0  0
   31.2418   69.9407   17.3786 O   0  0  0  0  0  0  0  0  0  0  0  0
   30.9870   70.8848   18.4183 C   0  0  0  0  0  0  0  0  0  0  0  0
   33.6796   70.5020   15.9029 O   0  0  0  0  0  0  0  0  0  0  0  0
   33.8223   69.3540   15.0646 C   0  0  0  0  0  0  0  0  0  0  0  0
   36.0776   70.4492   17.6570 O   0  0  0  0  0  0  0  0  0  0  0  0
   35.7145   71.7146   18.2000 C   0  0  0  0  0  0  0  0  0  0  0  0
   31.7012   67.2677   19.0663 C   0  0  0  0  0  0  0  0  0  0  0  0
   30.4871   65.7047   17.7424 C   0  0  0  0  0  0  0  0  0  0  0  0
   31.5647   66.6345   17.7985 O   0  0  0  0  0  0  0  0  0  0  0  0
 18 19  1  0
 19 17  1  0
  1 17  1  0
  1  2  1  0
  2 11  1  0
 11 12  1  0
  2  3  1  0
  3 13  1  0
 13 14  1  0
  3  4  1  0
  4 15  1  0
 15 16  1  0
  4  5  1  0
  5  6  1  0
  6  7  1  0
  7  8  2  0
  8  9  1  0
  9  1  1  0
  9  5  2  0
  6 10  1  0
M  CHG 1   9   1
M  END
> <minimizedAffinity>
-3.97661

> <CNNscore>
0.1622636318

> <CNNaffinity>
2.6518628597

> <CNN_VS>
0.4303008914

> <CNNaffinity_variance>
1.8444056511

$$$$



 19 20  0  0  0  0  0  0  0  0999 V2000
   24.5967   65.6802   16.0573 C   0  0  0  0  0  0  0  0  0  0  0  0
   24.0549   64.8218   14.8666 C   0  0  0  0  0  0  0  0  0  0  0  0
   25.0948   64.6221   13.7281 C   0  0  0  0  0  0  0  0  0  0  0  0
   26.3991   64.0215   14.2712 C   0  0  0  0  0  0  0  0  0  0  0  0
   26.8524   64.8014   15.4719 C   0  0  0  0  0  0  0  0  0  0  0  0
   28.1031   64.9348   15.9363 N   0  0  0  0  0  0  0  0  0  0  0  0
   28.1417   65.7969   17.0009 C   0  0  0  0  0  0  0  0  0  0  0  0
   26.8522   66.2062   17.2054 C   0  0  0  0  0  0  0  0  0  0  0  0
   26.0638   65.5473   16.2637 N   0  0  0  0  0  0  0  0  0  0  0  0
   28.8890   64.4746   15.5623 H   0  0  0  0  0  0  0  0  0  0  0  0
   22.9226   65.5247   14.3117 O   0  0  0  0  0  0  0  0  0  0  0  0
   21.7087   64.7765   14.3761 C   0  0  0  0  0  0  0  0  0  0  0  0
   24.5598   63.6844   12.7726 O   0  0  0  0  0  0  0  0  0  0  0  0
   24.4262   64.2397   11.4630 C   0  0  0  0  0  0  0  0  0  0  0  0
   27.4585   64.0644   13.3046 O   0  0  0  0  0  0  0  0  0  0  0  0
   27.9560   62.7761   12.9569 C   0  0  0  0  0  0  0  0  0  0  0  0
   23.8358   65.3415   17.3674 C   0  0  0  0  0  0  0  0  0  0  0  0
   22.6492   63.3075   17.7194 C   0  0  0  0  0  0  0  0  0  0  0  0
   23.9084   63.9724   17.7508 O   0  0  0  0  0  0  0  0  0  0  0  0
 18 19  1  0
 19 17  1  0
  1 17  1  0
  1  2  1  0
  2 11  1  0
 11 12  1  0
  2  3  1  0
  3 13  1  0
 13 14  1  0
  3  4  1  0
  4 15  1  0
 15 16  1  0
  4  5  1  0
  5  6  1  0
  6  7  1  0
  7  8  2  0
  8  9  1  0
  9  1  1  0
  9  5  2  0
  6 10  1  0
M  CHG 1   9   1
M  END
> <minimizedAffinity>
-4.00379

> <CNNscore>
0.1423846930

> <CNNaffinity>
2.8238365650

> <CNN_VS>
0.4020710886

> <CNNaffinity_variance>
1.3248955011

$$$$



 19 20  0  0  0  0  0  0  0  0999 V2000
   28.0032   65.8817   11.1813 C   0  0  0  0  0  0  0  0  0  0  0  0
   28.4025   67.2398   11.8479 C   0  0  0  0  0  0  0  0  0  0  0  0
   28.0354   67.3167   13.3568 C   0  0  0  0  0  0  0  0  0  0  0  0
   28.6432   66.1401   14.1332 C   0  0  0  0  0  0  0  0  0  0  0  0
   28.3299   64.8529   13.4258 C   0  0  0  0  0  0  0  0  0  0  0  0
   28.2400   63.6265   13.9604 N   0  0  0  0  0  0  0  0  0  0  0  0
   27.8471   62.7095   13.0207 C   0  0  0  0  0  0  0  0  0  0  0  0
   27.6965   63.4041   11.8515 C   0  0  0  0  0  0  0  0  0  0  0  0
   28.0352   64.7289   12.1208 N   0  0  0  0  0  0  0  0  0  0  0  0
   28.4308   63.4132   14.9023 H   0  0  0  0  0  0  0  0  0  0  0  0
   27.6766   68.2831   11.1634 O   0  0  0  0  0  0  0  0  0  0  0  0
   26.2667   68.2216   11.3771 C   0  0  0  0  0  0  0  0  0  0  0  0
   28.5959   68.5253   13.9079 O   0  0  0  0  0  0  0  0  0  0  0  0
   30.0176   68.5871   13.7817 C   0  0  0  0  0  0  0  0  0  0  0  0
   28.1162   66.0396   15.4639 O   0  0  0  0  0  0  0  0  0  0  0  0
   29.1234   66.0503   16.4706 C   0  0  0  0  0  0  0  0  0  0  0  0
   28.8976   65.5942    9.9455 C   0  0  0  0  0  0  0  0  0  0  0  0
   26.7761   65.6350    8.8652 C   0  0  0  0  0  0  0  0  0  0  0  0
   28.1849   65.4857    8.7179 O   0  0  0  0  0  0  0  0  0  0  0  0
 18 19  1  0
 19 17  1  0
  1 17  1  0
  1  2  1  0
  2 11  1  0
 11 12  1  0
  2  3  1  0
  3 13  1  0
 13 14  1  0
  3  4  1  0
  4 15  1  0
 15 16  1  0
  4  5  1  0
  5  6  1  0
  6  7  1  0
  7  8  2  0
  8  9  1  0
  9  1  1  0
  9  5  2  0
  6 10  1  0
M  CHG 1   9   1
M  END
> <minimizedAffinity>
-4.20149

> <CNNscore>
0.1265856326

> <CNNaffinity>
2.9980494976

> <CNN_VS>
0.3795099854

> <CNNaffinity_variance>
1.5804890394

$$$$



 19 20  0  0  0  0  0  0  0  0999 V2000
   30.9541   66.7758   18.2892 C   0  0  0  0  0  0  0  0  0  0  0  0
   30.9907   67.1170   16.7626 C   0  0  0  0  0  0  0  0  0  0  0  0
   31.7830   68.4154   16.4406 C   0  0  0  0  0  0  0  0  0  0  0  0
   33.2078   68.3474   17.0082 C   0  0  0  0  0  0  0  0  0  0  0  0
   33.1576   67.9256   18.4488 C   0  0  0  0  0  0  0  0  0  0  0  0
   34.0528   68.1920   19.4108 N   0  0  0  0  0  0  0  0  0  0  0  0
   33.6246   67.7189   20.6237 C   0  0  0  0  0  0  0  0  0  0  0  0
   32.4127   67.1266   20.3943 C   0  0  0  0  0  0  0  0  0  0  0  0
   32.1594   67.2381   19.0283 N   0  0  0  0  0  0  0  0  0  0  0  0
   34.9042   68.6644   19.2653 H   0  0  0  0  0  0  0  0  0  0  0  0
   29.6262   67.3152   16.3349 O   0  0  0  0  0  0  0  0  0  0  0  0
   29.1878   66.3455   15.3836 C   0  0  0  0  0  0  0  0  0  0  0  0
   31.9007   68.5421   15.0093 O   0  0  0  0  0  0  0  0  0  0  0  0
   31.2210   69.6884   14.4945 C   0  0  0  0  0  0  0  0  0  0  0  0
   33.8732   69.6174   16.9543 O   0  0  0  0  0  0  0  0  0  0  0  0
   33.0787   70.6908   17.4490 C   0  0  0  0  0  0  0  0  0  0  0  0
   30.7411   65.2534   18.5052 C   0  0  0  0  0  0  0  0  0  0  0  0
   28.5130   65.6071   19.2668 C   0  0  0  0  0  0  0  0  0  0  0  0
   29.7495   64.9314   19.4748 O   0  0  0  0  0  0  0  0  0  0  0  0
 18 19  1  0
 19 17  1  0
  1 17  1  0
  1  2  1  0
  2 11  1  0
 11 12  1  0
  2  3  1  0
  3 13  1  0
 13 14  1  0
  3  4  1  0
  4 15  1  0
 15 16  1  0
  4  5  1  0
  5  6  1  0
  6  7  1  0
  7  8  2  0
  8  9  1  0
  9  1  1  0
  9  5  2  0
  6 10  1  0
M  CHG 1   9   1
M  END
> <minimizedAffinity>
-4.27572

> <CNNscore>
0.1193201467

> <CNNaffinity>
2.6522862911

> <CNN_VS>
0.3164711893

> <CNNaffinity_variance>
1.6023784876

$$$$



 19 20  0  0  0  0  0  0  0  0999 V2000
   26.0964   65.9528   16.7240 C   0  0  0  0  0  0  0  0  0  0  0  0
   25.1475   64.8800   16.0940 C   0  0  0  0  0  0  0  0  0  0  0  0
   25.4883   64.5498   14.6134 C   0  0  0  0  0  0  0  0  0  0  0  0
   26.9547   64.1193   14.4675 C   0  0  0  0  0  0  0  0  0  0  0  0
   27.8435   65.1117   15.1609 C   0  0  0  0  0  0  0  0  0  0  0  0
   29.1276   65.3878   14.8916 N   0  0  0  0  0  0  0  0  0  0  0  0
   29.5829   66.4161   15.6748 C   0  0  0  0  0  0  0  0  0  0  0  0
   28.5309   66.7836   16.4688 C   0  0  0  0  0  0  0  0  0  0  0  0
   27.4705   65.9355   16.1545 N   0  0  0  0  0  0  0  0  0  0  0  0
   29.6711   64.9148   14.2206 H   0  0  0  0  0  0  0  0  0  0  0  0
   23.8086   65.4185   16.1291 O   0  0  0  0  0  0  0  0  0  0  0  0
   23.6849   66.6651   15.4450 C   0  0  0  0  0  0  0  0  0  0  0  0
   24.6742   63.4385   14.1884 O   0  0  0  0  0  0  0  0  0  0  0  0
   23.8925   63.7327   13.0293 C   0  0  0  0  0  0  0  0  0  0  0  0
   27.3668   64.0576   13.0946 O   0  0  0  0  0  0  0  0  0  0  0  0
   27.8220   62.7669   12.7009 C   0  0  0  0  0  0  0  0  0  0  0  0
   26.1513   65.7967   18.2675 C   0  0  0  0  0  0  0  0  0  0  0  0
   27.9033   65.2130   19.7706 C   0  0  0  0  0  0  0  0  0  0  0  0
   27.0395   64.7818   18.7234 O   0  0  0  0  0  0  0  0  0  0  0  0
 18 19  1  0
 19 17  1  0
  1 17  1  0
  1  2  1  0
  2 11  1  0
 11 12  1  0
  2  3  1  0
  3 13  1  0
 13 14  1  0
  3  4  1  0
  4 15  1  0
 15 16  1  0
  4  5  1  0
  5  6  1  0
  6  7  1  0
  7  8  2  0
  8  9  1  0
  9  1  1  0
  9  5  2  0
  6 10  1  0
M  CHG 1   9   1
M  END
> <minimizedAffinity>
-4.24732

> <CNNscore>
0.1178222224

> <CNNaffinity>
2.5012295246

> <CNN_VS>
0.2947004139

> <CNNaffinity_variance>
1.6298646927

$$$$



 19 20  0  0  0  0  0  0  0  0999 V2000
   26.6592   65.7783   11.7051 C   0  0  0  0  0  0  0  0  0  0  0  0
   25.1820   66.2927   11.7401 C   0  0  0  0  0  0  0  0  0  0  0  0
   24.1339   65.1489   11.8442 C   0  0  0  0  0  0  0  0  0  0  0  0
   24.4167   64.2501   13.0562 C   0  0  0  0  0  0  0  0  0  0  0  0
   25.8627   63.8444   13.0573 C   0  0  0  0  0  0  0  0  0  0  0  0
   26.4039   62.7466   13.6048 N   0  0  0  0  0  0  0  0  0  0  0  0
   27.7434   62.6689   13.3260 C   0  0  0  0  0  0  0  0  0  0  0  0
   28.0409   63.7758   12.5786 C   0  0  0  0  0  0  0  0  0  0  0  0
   26.8622   64.5089   12.4534 N   0  0  0  0  0  0  0  0  0  0  0  0
   25.9055   62.0847   14.1364 H   0  0  0  0  0  0  0  0  0  0  0  0
   24.9442   66.9979   10.5031 O   0  0  0  0  0  0  0  0  0  0  0  0
   24.6364   68.3787   10.6923 C   0  0  0  0  0  0  0  0  0  0  0  0
   22.8306   65.7328   12.0421 O   0  0  0  0  0  0  0  0  0  0  0  0
   22.7393   66.4941   13.2476 C   0  0  0  0  0  0  0  0  0  0  0  0
   23.6323   63.0489   13.0340 O   0  0  0  0  0  0  0  0  0  0  0  0
   22.7224   62.9504   14.1251 C   0  0  0  0  0  0  0  0  0  0  0  0
   27.6321   66.8709   12.2245 C   0  0  0  0  0  0  0  0  0  0  0  0
   28.6251   66.6303   10.0738 C   0  0  0  0  0  0  0  0  0  0  0  0
   28.7965   67.0479   11.4247 O   0  0  0  0  0  0  0  0  0  0  0  0
 18 19  1  0
 19 17  1  0
  1 17  1  0
  1  2  1  0
  2 11  1  0
 11 12  1  0
  2  3  1  0
  3 13  1  0
 13 14  1  0
  3  4  1  0
  4 15  1  0
 15 16  1  0
  4  5  1  0
  5  6  1  0
  6  7  1  0
  7  8  2  0
  8  9  1  0
  9  1  1  0
  9  5  2  0
  6 10  1  0
M  CHG 1   9   1
M  END
> <minimizedAffinity>
-3.97645

> <CNNscore>
0.0947196707

> <CNNaffinity>
3.3218142986

> <CNN_VS>
0.3146411479

> <CNNaffinity_variance>
0.8288359642

$$$$
