


 17 16  0  0  0  0  0  0  0  0999 V2000
   -2.0087    9.9640   18.1124 C   0  0  0  0  0  0  0  0  0  0  0  0
   -2.1829   10.8708   19.3328 C   0  0  0  0  0  0  0  0  0  0  0  0
   -2.2743   12.3428   18.9200 C   0  0  0  0  0  0  0  0  0  0  0  0
   -3.4705   12.5861   17.9975 C   0  0  0  0  0  0  0  0  0  0  0  0
   -3.7220   14.0680   17.7023 C   0  0  0  0  0  0  0  0  0  0  0  0
   -2.4712   14.9448   17.5786 C   0  0  0  0  0  0  0  0  0  0  0  0
   -2.7260   16.4151   17.9195 C   0  0  0  0  0  0  0  0  0  0  0  0
   -3.8862   18.2035   16.5173 C   0  0  0  0  0  0  0  0  0  0  0  0
   -4.0470   16.9444   17.3554 C   0  0  0  0  0  0  0  0  0  0  0  0
   -2.5158    8.5351   18.3345 C   0  0  0  0  0  0  0  0  0  0  0  0
   -1.8256    7.8205   19.4991 C   0  0  0  0  0  0  0  0  0  0  0  0
   -1.3695    6.3963   19.1573 C   0  0  0  0  0  0  0  0  0  0  0  0
   -0.2795    5.8304   20.0633 C   0  0  0  0  0  0  0  0  0  0  0  0
   -0.7084    4.5760   20.7693 C   0  0  0  0  0  0  0  0  0  0  0  0
   -0.2072    3.4714   20.6440 O   0  0  0  0  0  0  0  0  0  0  0  0
   -1.7518    4.7696   21.5969 O   0  0  0  0  0  0  0  0  0  0  0  0
   -2.1282    5.6232   21.6845 H   0  0  0  0  0  0  0  0  0  0  0  0
  8  9  1  0
  9  7  1  0
  7  6  1  0
  6  5  1  0
  5  4  1  0
  4  3  1  0
  3  2  1  0
  2  1  1  0
  1 10  1  0
 10 11  1  0
 11 12  1  0
 12 13  1  0
 13 14  1  0
 14 15  2  0
 14 16  1  0
 16 17  1  0
M  END
> <minimizedAffinity>
-6.54468

> <CNNscore>
0.9194438457

> <CNNaffinity>
5.6960854530

> <CNN_VS>
5.2372307777

> <CNNaffinity_variance>
0.3191515505

$$$$



 17 16  0  0  0  0  0  0  0  0999 V2000
   -2.0358    9.8480   17.7109 C   0  0  0  0  0  0  0  0  0  0  0  0
   -2.2813   11.2125   18.3588 C   0  0  0  0  0  0  0  0  0  0  0  0
   -3.6445   11.7805   17.9535 C   0  0  0  0  0  0  0  0  0  0  0  0
   -3.5784   13.2973   17.7638 C   0  0  0  0  0  0  0  0  0  0  0  0
   -2.2855   13.9231   18.2962 C   0  0  0  0  0  0  0  0  0  0  0  0
   -2.2247   15.4541   18.2671 C   0  0  0  0  0  0  0  0  0  0  0  0
   -3.1614   16.0779   17.2296 C   0  0  0  0  0  0  0  0  0  0  0  0
   -3.9395   18.3448   16.3544 C   0  0  0  0  0  0  0  0  0  0  0  0
   -3.5709   17.5125   17.5729 C   0  0  0  0  0  0  0  0  0  0  0  0
   -2.2369    8.6701   18.6703 C   0  0  0  0  0  0  0  0  0  0  0  0
   -2.4600    7.3356   17.9543 C   0  0  0  0  0  0  0  0  0  0  0  0
   -2.0107    6.1199   18.7750 C   0  0  0  0  0  0  0  0  0  0  0  0
   -0.6430    6.2560   19.4383 C   0  0  0  0  0  0  0  0  0  0  0  0
   -0.3385    5.1204   20.3730 C   0  0  0  0  0  0  0  0  0  0  0  0
   -1.1521    4.3678   20.8815 O   0  0  0  0  0  0  0  0  0  0  0  0
    0.9763    4.9879   20.6277 O   0  0  0  0  0  0  0  0  0  0  0  0
    1.5917    5.5725   20.2307 H   0  0  0  0  0  0  0  0  0  0  0  0
  8  9  1  0
  9  7  1  0
  7  6  1  0
  6  5  1  0
  5  4  1  0
  4  3  1  0
  3  2  1  0
  2  1  1  0
  1 10  1  0
 10 11  1  0
 11 12  1  0
 12 13  1  0
 13 14  1  0
 14 15  2  0
 14 16  1  0
 16 17  1  0
M  END
> <minimizedAffinity>
-6.63504

> <CNNscore>
0.9155954123

> <CNNaffinity>
5.9279994965

> <CNN_VS>
5.4276490211

> <CNNaffinity_variance>
0.2241232842

$$$$



 17 16  0  0  0  0  0  0  0  0999 V2000
   -2.7289    9.5765   18.7116 C   0  0  0  0  0  0  0  0  0  0  0  0
   -2.4077   10.8878   19.4321 C   0  0  0  0  0  0  0  0  0  0  0  0
   -2.0066   11.9816   18.4381 C   0  0  0  0  0  0  0  0  0  0  0  0
   -2.1879   13.3747   19.0445 C   0  0  0  0  0  0  0  0  0  0  0  0
   -1.9665   14.5106   18.0409 C   0  0  0  0  0  0  0  0  0  0  0  0
   -3.0809   14.7154   17.0091 C   0  0  0  0  0  0  0  0  0  0  0  0
   -4.0686   15.8192   17.3954 C   0  0  0  0  0  0  0  0  0  0  0  0
   -3.9098   18.2159   16.5346 C   0  0  0  0  0  0  0  0  0  0  0  0
   -3.4095   17.1930   17.5429 C   0  0  0  0  0  0  0  0  0  0  0  0
   -2.6945    8.3498   19.6294 C   0  0  0  0  0  0  0  0  0  0  0  0
   -3.5199    7.1736   19.1014 C   0  0  0  0  0  0  0  0  0  0  0  0
   -2.7221    6.2250   18.1975 C   0  0  0  0  0  0  0  0  0  0  0  0
   -3.5657    5.3043   17.3202 C   0  0  0  0  0  0  0  0  0  0  0  0
   -2.9110    3.9738   17.0816 C   0  0  0  0  0  0  0  0  0  0  0  0
   -2.0176    3.4804   17.7490 O   0  0  0  0  0  0  0  0  0  0  0  0
   -3.4084    3.3281   16.0107 O   0  0  0  0  0  0  0  0  0  0  0  0
   -4.0948    3.7178   15.5058 H   0  0  0  0  0  0  0  0  0  0  0  0
  8  9  1  0
  9  7  1  0
  7  6  1  0
  6  5  1  0
  5  4  1  0
  4  3  1  0
  3  2  1  0
  2  1  1  0
  1 10  1  0
 10 11  1  0
 11 12  1  0
 12 13  1  0
 13 14  1  0
 14 15  2  0
 14 16  1  0
 16 17  1  0
M  END
> <minimizedAffinity>
-5.49350

> <CNNscore>
0.8966249228

> <CNNaffinity>
5.7169690132

> <CNN_VS>
5.1259770393

> <CNNaffinity_variance>
0.2668133676

$$$$



 17 16  0  0  0  0  0  0  0  0999 V2000
   -2.1615    9.8200   19.5054 C   0  0  0  0  0  0  0  0  0  0  0  0
   -2.6723   11.2625   19.5215 C   0  0  0  0  0  0  0  0  0  0  0  0
   -3.2878   11.6468   18.1728 C   0  0  0  0  0  0  0  0  0  0  0  0
   -3.3626   13.1664   18.0110 C   0  0  0  0  0  0  0  0  0  0  0  0
   -2.1196   13.8971   18.5284 C   0  0  0  0  0  0  0  0  0  0  0  0
   -2.1117   15.4175   18.3363 C   0  0  0  0  0  0  0  0  0  0  0  0
   -3.2907   15.9291   17.5048 C   0  0  0  0  0  0  0  0  0  0  0  0
   -3.9271   18.1285   16.3787 C   0  0  0  0  0  0  0  0  0  0  0  0
   -3.5407   17.4300   17.6734 C   0  0  0  0  0  0  0  0  0  0  0  0
   -2.6110    9.0255   18.2746 C   0  0  0  0  0  0  0  0  0  0  0  0
   -2.1496    7.5660   18.2928 C   0  0  0  0  0  0  0  0  0  0  0  0
   -3.0429    6.6538   19.1432 C   0  0  0  0  0  0  0  0  0  0  0  0
   -4.5397    6.7786   18.8729 C   0  0  0  0  0  0  0  0  0  0  0  0
   -5.0723    5.6493   18.0382 C   0  0  0  0  0  0  0  0  0  0  0  0
   -4.4092    4.8569   17.3907 O   0  0  0  0  0  0  0  0  0  0  0  0
   -6.4159    5.5730   18.0537 O   0  0  0  0  0  0  0  0  0  0  0  0
   -6.9143    6.1878   18.5552 H   0  0  0  0  0  0  0  0  0  0  0  0
  8  9  1  0
  9  7  1  0
  7  6  1  0
  6  5  1  0
  5  4  1  0
  4  3  1  0
  3  2  1  0
  2  1  1  0
  1 10  1  0
 10 11  1  0
 11 12  1  0
 12 13  1  0
 13 14  1  0
 14 15  2  0
 14 16  1  0
 16 17  1  0
M  END
> <minimizedAffinity>
-5.94138

> <CNNscore>
0.8364691138

> <CNNaffinity>
5.7327656746

> <CNN_VS>
4.7952814102

> <CNNaffinity_variance>
0.3711638153

$$$$



 17 16  0  0  0  0  0  0  0  0999 V2000
   -2.8901   10.5400   17.9075 C   0  0  0  0  0  0  0  0  0  0  0  0
   -2.2229   11.7058   18.6411 C   0  0  0  0  0  0  0  0  0  0  0  0
   -2.9331   13.0286   18.3394 C   0  0  0  0  0  0  0  0  0  0  0  0
   -1.9738   14.2138   18.4662 C   0  0  0  0  0  0  0  0  0  0  0  0
   -2.5982   15.5510   18.0557 C   0  0  0  0  0  0  0  0  0  0  0  0
   -3.9114   15.4606   17.2710 C   0  0  0  0  0  0  0  0  0  0  0  0
   -4.5568   16.8240   17.0111 C   0  0  0  0  0  0  0  0  0  0  0  0
   -3.8290   18.9244   15.7585 C   0  0  0  0  0  0  0  0  0  0  0  0
   -3.5383   17.9614   16.8994 C   0  0  0  0  0  0  0  0  0  0  0  0
   -2.0519    9.2572   17.9075 C   0  0  0  0  0  0  0  0  0  0  0  0
   -2.2548    8.3998   19.1593 C   0  0  0  0  0  0  0  0  0  0  0  0
   -1.4013    7.1251   19.1711 C   0  0  0  0  0  0  0  0  0  0  0  0
   -2.1866    5.8210   19.2795 C   0  0  0  0  0  0  0  0  0  0  0  0
   -3.4279    5.8219   18.4339 C   0  0  0  0  0  0  0  0  0  0  0  0
   -4.5759    5.8897   18.8395 O   0  0  0  0  0  0  0  0  0  0  0  0
   -3.1663    5.7327   17.1168 O   0  0  0  0  0  0  0  0  0  0  0  0
   -2.2798    5.6811   16.8176 H   0  0  0  0  0  0  0  0  0  0  0  0
  8  9  1  0
  9  7  1  0
  7  6  1  0
  6  5  1  0
  5  4  1  0
  4  3  1  0
  3  2  1  0
  2  1  1  0
  1 10  1  0
 10 11  1  0
 11 12  1  0
 12 13  1  0
 13 14  1  0
 14 15  2  0
 14 16  1  0
 16 17  1  0
M  END
> <minimizedAffinity>
-6.11449

> <CNNscore>
0.8264106512

> <CNNaffinity>
5.5641026497

> <CNN_VS>
4.5982336998

> <CNNaffinity_variance>
0.3811296523

$$$$



 17 16  0  0  0  0  0  0  0  0999 V2000
   -3.0902    7.6853   18.3982 C   0  0  0  0  0  0  0  0  0  0  0  0
   -1.9792    8.6980   18.6849 C   0  0  0  0  0  0  0  0  0  0  0  0
   -2.0693    9.9005   17.7410 C   0  0  0  0  0  0  0  0  0  0  0  0
   -2.2515   11.2043   18.5208 C   0  0  0  0  0  0  0  0  0  0  0  0
   -3.5305   11.9624   18.1519 C   0  0  0  0  0  0  0  0  0  0  0  0
   -3.3532   13.4487   17.8232 C   0  0  0  0  0  0  0  0  0  0  0  0
   -2.1274   14.0751   18.4926 C   0  0  0  0  0  0  0  0  0  0  0  0
   -3.2480   16.1854   17.5974 C   0  0  0  0  0  0  0  0  0  0  0  0
   -2.1432   15.6057   18.4673 C   0  0  0  0  0  0  0  0  0  0  0  0
   -2.5884    6.2417   18.2867 C   0  0  0  0  0  0  0  0  0  0  0  0
   -3.2941    5.4369   17.1922 C   0  0  0  0  0  0  0  0  0  0  0  0
   -3.0449    3.9263   17.2885 C   0  0  0  0  0  0  0  0  0  0  0  0
   -4.0970    3.0520   16.6119 C   0  0  0  0  0  0  0  0  0  0  0  0
   -5.4846    3.3193   17.1207 C   0  0  0  0  0  0  0  0  0  0  0  0
   -6.3806    3.8778   16.5106 O   0  0  0  0  0  0  0  0  0  0  0  0
   -5.6784    2.8749   18.3762 O   0  0  0  0  0  0  0  0  0  0  0  0
   -4.9819    2.4473   18.8345 H   0  0  0  0  0  0  0  0  0  0  0  0
  8  9  1  0
  9  7  1  0
  7  6  1  0
  6  5  1  0
  5  4  1  0
  4  3  1  0
  3  2  1  0
  2  1  1  0
  1 10  1  0
 10 11  1  0
 11 12  1  0
 12 13  1  0
 13 14  1  0
 14 15  2  0
 14 16  1  0
 16 17  1  0
M  END
> <minimizedAffinity>
-5.47580

> <CNNscore>
0.7857195139

> <CNNaffinity>
5.1298050880

> <CNN_VS>
4.0305881500

> <CNNaffinity_variance>
0.3392556906

$$$$



 17 16  0  0  0  0  0  0  0  0999 V2000
   -3.8009    6.7804   19.0692 C   0  0  0  0  0  0  0  0  0  0  0  0
   -3.1281    7.7194   20.0732 C   0  0  0  0  0  0  0  0  0  0  0  0
   -2.1031    8.6243   19.3835 C   0  0  0  0  0  0  0  0  0  0  0  0
   -2.7462    9.4266   18.2505 C   0  0  0  0  0  0  0  0  0  0  0  0
   -1.9039   10.6224   17.7951 C   0  0  0  0  0  0  0  0  0  0  0  0
   -2.0777   11.9090   18.6093 C   0  0  0  0  0  0  0  0  0  0  0  0
   -3.2704   12.7553   18.1576 C   0  0  0  0  0  0  0  0  0  0  0  0
   -3.1026   14.8735   16.7449 C   0  0  0  0  0  0  0  0  0  0  0  0
   -2.9681   14.2557   18.1283 C   0  0  0  0  0  0  0  0  0  0  0  0
   -2.8373    5.7729   18.4332 C   0  0  0  0  0  0  0  0  0  0  0  0
   -3.5171    4.4693   18.0066 C   0  0  0  0  0  0  0  0  0  0  0  0
   -3.1525    4.0281   16.5832 C   0  0  0  0  0  0  0  0  0  0  0  0
   -2.4824    2.6608   16.4807 C   0  0  0  0  0  0  0  0  0  0  0  0
   -3.3807    1.6209   15.8746 C   0  0  0  0  0  0  0  0  0  0  0  0
   -3.3903    1.2692   14.7070 O   0  0  0  0  0  0  0  0  0  0  0  0
   -4.2287    1.0753   16.7659 O   0  0  0  0  0  0  0  0  0  0  0  0
   -4.2115    1.3541   17.6603 H   0  0  0  0  0  0  0  0  0  0  0  0
  8  9  1  0
  9  7  1  0
  7  6  1  0
  6  5  1  0
  5  4  1  0
  4  3  1  0
  3  2  1  0
  2  1  1  0
  1 10  1  0
 10 11  1  0
 11 12  1  0
 12 13  1  0
 13 14  1  0
 14 15  2  0
 14 16  1  0
 16 17  1  0
M  END
> <minimizedAffinity>
-4.31749

> <CNNscore>
0.7725743651

> <CNNaffinity>
5.3440380096

> <CNN_VS>
4.1286668777

> <CNNaffinity_variance>
0.0470907278

$$$$



 17 16  0  0  0  0  0  0  0  0999 V2000
   -2.3618    6.3645   19.9416 C   0  0  0  0  0  0  0  0  0  0  0  0
   -1.6210    7.7002   19.8458 C   0  0  0  0  0  0  0  0  0  0  0  0
   -1.8721    8.3768   18.4951 C   0  0  0  0  0  0  0  0  0  0  0  0
   -3.0925    9.2977   18.5553 C   0  0  0  0  0  0  0  0  0  0  0  0
   -2.8501   10.6738   17.9275 C   0  0  0  0  0  0  0  0  0  0  0  0
   -3.1387   11.8785   18.8298 C   0  0  0  0  0  0  0  0  0  0  0  0
   -3.9257   12.9871   18.1266 C   0  0  0  0  0  0  0  0  0  0  0  0
   -2.0424   14.6942   18.3493 C   0  0  0  0  0  0  0  0  0  0  0  0
   -3.0294   14.0064   17.4186 C   0  0  0  0  0  0  0  0  0  0  0  0
   -1.4303    5.1479   19.9560 C   0  0  0  0  0  0  0  0  0  0  0  0
   -1.8609    4.0657   20.9494 C   0  0  0  0  0  0  0  0  0  0  0  0
   -0.9945    2.8012   20.8883 C   0  0  0  0  0  0  0  0  0  0  0  0
   -0.1715    2.5189   22.1421 C   0  0  0  0  0  0  0  0  0  0  0  0
   -0.8188    1.5057   23.0422 C   0  0  0  0  0  0  0  0  0  0  0  0
   -0.7357    1.4647   24.2581 O   0  0  0  0  0  0  0  0  0  0  0  0
   -1.5371    0.5880   22.3691 O   0  0  0  0  0  0  0  0  0  0  0  0
   -1.5932    0.6302   21.4348 H   0  0  0  0  0  0  0  0  0  0  0  0
  8  9  1  0
  9  7  1  0
  7  6  1  0
  6  5  1  0
  5  4  1  0
  4  3  1  0
  3  2  1  0
  2  1  1  0
  1 10  1  0
 10 11  1  0
 11 12  1  0
 12 13  1  0
 13 14  1  0
 14 15  2  0
 14 16  1  0
 16 17  1  0
M  END
> <minimizedAffinity>
-4.74487

> <CNNscore>
0.7574626803

> <CNNaffinity>
5.3755278587

> <CNN_VS>
4.0717616081

> <CNNaffinity_variance>
0.0332505964

$$$$



 17 16  0  0  0  0  0  0  0  0999 V2000
   -4.6433    5.7177   19.6832 C   0  0  0  0  0  0  0  0  0  0  0  0
   -3.2733    6.3146   19.3534 C   0  0  0  0  0  0  0  0  0  0  0  0
   -2.8157    7.2863   20.4450 C   0  0  0  0  0  0  0  0  0  0  0  0
   -2.1516    8.5253   19.8408 C   0  0  0  0  0  0  0  0  0  0  0  0
   -2.8652    9.0523   18.5919 C   0  0  0  0  0  0  0  0  0  0  0  0
   -2.1349   10.1593   17.8240 C   0  0  0  0  0  0  0  0  0  0  0  0
   -1.8961   11.4196   18.6593 C   0  0  0  0  0  0  0  0  0  0  0  0
   -2.4313   13.8599   18.1404 C   0  0  0  0  0  0  0  0  0  0  0  0
   -2.9826   12.4816   18.4719 C   0  0  0  0  0  0  0  0  0  0  0  0
   -5.7044    5.9928   18.6124 C   0  0  0  0  0  0  0  0  0  0  0  0
   -7.0150    6.5401   19.1835 C   0  0  0  0  0  0  0  0  0  0  0  0
   -7.7532    5.5409   20.0835 C   0  0  0  0  0  0  0  0  0  0  0  0
   -9.1263    5.9978   20.5683 C   0  0  0  0  0  0  0  0  0  0  0  0
   -9.9375    4.8747   21.1483 C   0  0  0  0  0  0  0  0  0  0  0  0
  -10.6547    4.9375   22.1325 O   0  0  0  0  0  0  0  0  0  0  0  0
   -9.8043    3.7230   20.4649 O   0  0  0  0  0  0  0  0  0  0  0  0
   -9.2501    3.6875   19.7102 H   0  0  0  0  0  0  0  0  0  0  0  0
  8  9  1  0
  9  7  1  0
  7  6  1  0
  6  5  1  0
  5  4  1  0
  4  3  1  0
  3  2  1  0
  2  1  1  0
  1 10  1  0
 10 11  1  0
 11 12  1  0
 12 13  1  0
 13 14  1  0
 14 15  2  0
 14 16  1  0
 16 17  1  0
M  END
> <minimizedAffinity>
-5.56115

> <CNNscore>
0.7140451670

> <CNNaffinity>
5.7751355171

> <CNN_VS>
4.1237077713

> <CNNaffinity_variance>
0.0319327526

$$$$
