


 19 20  0  0  0  0  0  0  0  0999 V2000
   -4.1122    5.7975   13.9302 C   0  0  0  0  0  0  0  0  0  0  0  0
   -5.3206    5.2437   14.3746 C   0  0  0  0  0  0  0  0  0  0  0  0
   -5.2859    4.0136   15.0589 C   0  0  0  0  0  0  0  0  0  0  0  0
   -6.5981    3.1051   15.7134 S   0  0  0  0  0  0  0  0  0  0  0  0
   -5.4936    1.9225   16.2520 C   0  0  0  0  0  0  0  0  0  0  0  0
   -4.2191    2.1367   15.9903 N   0  0  0  0  0  0  0  0  0  0  0  0
   -4.0919    3.3331   15.3068 C   0  0  0  0  0  0  0  0  0  0  0  0
   -2.8855    3.8974   14.8567 C   0  0  0  0  0  0  0  0  0  0  0  0
   -2.9085    5.1199   14.1753 C   0  0  0  0  0  0  0  0  0  0  0  0
   -1.3911    5.7649   13.6455 Cl  0  0  0  0  0  0  0  0  0  0  0  0
   -6.1617    0.5211   17.1105 S   0  0  0  0  0  0  0  0  0  0  0  0
   -5.7772   -0.8881   16.2682 N   0  0  0  0  0  0  0  0  0  0  0  0
   -5.4550    0.4270   18.3687 O   0  0  0  0  0  0  0  0  0  0  0  0
   -7.6016    0.6360   17.0390 O   0  0  0  0  0  0  0  0  0  0  0  0
   -4.7668   -1.0273   16.2817 H   0  0  0  0  0  0  0  0  0  0  0  0
   -6.0960   -0.8049   15.3029 H   0  0  0  0  0  0  0  0  0  0  0  0
   -4.0168    6.9874   13.2538 O   0  0  0  0  0  0  0  0  0  0  0  0
   -5.6251    7.2223   11.5137 C   0  0  0  0  0  0  0  0  0  0  0  0
   -4.1632    6.9701   11.8355 C   0  0  0  0  0  0  0  0  0  0  0  0
 18 19  1  0
 19 17  1  0
 17  1  1  0
  1  2  2  0
  2  3  1  0
  3  4  1  0
  4  5  1  0
  5 11  1  0
 11 12  1  0
 11 13  2  0
 11 14  2  0
  5  6  2  0
  6  7  1  0
  7  8  1  0
  8  9  2  0
  9 10  1  0
  9  1  1  0
  7  3  2  0
 12 15  1  0
 12 16  1  0
M  END
> <minimizedAffinity>
-7.09390

> <CNNscore>
0.9533635378

> <CNNaffinity>
7.5061974525

> <CNN_VS>
7.1561350822

> <CNNaffinity_variance>
0.9459924698

$$$$



 19 20  0  0  0  0  0  0  0  0999 V2000
   -4.6169    6.4155   12.0825 C   0  0  0  0  0  0  0  0  0  0  0  0
   -5.3327    5.8926   13.1682 C   0  0  0  0  0  0  0  0  0  0  0  0
   -4.9950    4.6105   13.6423 C   0  0  0  0  0  0  0  0  0  0  0  0
   -5.6939    3.7229   14.9458 S   0  0  0  0  0  0  0  0  0  0  0  0
   -4.6098    2.4428   14.6383 C   0  0  0  0  0  0  0  0  0  0  0  0
   -3.7607    2.6092   13.6432 N   0  0  0  0  0  0  0  0  0  0  0  0
   -3.9751    3.8491   13.0675 C   0  0  0  0  0  0  0  0  0  0  0  0
   -3.2635    4.3830   11.9789 C   0  0  0  0  0  0  0  0  0  0  0  0
   -3.5910    5.6567   11.4996 C   0  0  0  0  0  0  0  0  0  0  0  0
   -2.6794    6.2608   10.1568 Cl  0  0  0  0  0  0  0  0  0  0  0  0
   -4.7267    1.0135   15.6827 S   0  0  0  0  0  0  0  0  0  0  0  0
   -4.6281   -0.3803   14.7388 N   0  0  0  0  0  0  0  0  0  0  0  0
   -3.5425    1.0055   16.5126 O   0  0  0  0  0  0  0  0  0  0  0  0
   -6.0614    1.0121   16.2395 O   0  0  0  0  0  0  0  0  0  0  0  0
   -3.7025   -0.4386   14.3142 H   0  0  0  0  0  0  0  0  0  0  0  0
   -5.3367   -0.3456   14.0060 H   0  0  0  0  0  0  0  0  0  0  0  0
   -4.8522    7.6500   11.5320 O   0  0  0  0  0  0  0  0  0  0  0  0
   -7.1923    8.0223   11.2974 C   0  0  0  0  0  0  0  0  0  0  0  0
   -5.8895    7.7683   10.5608 C   0  0  0  0  0  0  0  0  0  0  0  0
 18 19  1  0
 19 17  1  0
 17  1  1  0
  1  2  2  0
  2  3  1  0
  3  4  1  0
  4  5  1  0
  5 11  1  0
 11 12  1  0
 11 13  2  0
 11 14  2  0
  5  6  2  0
  6  7  1  0
  7  8  1  0
  8  9  2  0
  9 10  1  0
  9  1  1  0
  7  3  2  0
 12 15  1  0
 12 16  1  0
M  END
> <minimizedAffinity>
-6.00053

> <CNNscore>
0.6424614787

> <CNNaffinity>
6.5615620613

> <CNN_VS>
4.2155508995

> <CNNaffinity_variance>
0.6345018744

$$$$



 19 20  0  0  0  0  0  0  0  0999 V2000
   -8.7376   10.4475    7.8140 C   0  0  0  0  0  0  0  0  0  0  0  0
   -8.7921   11.8383    7.9788 C   0  0  0  0  0  0  0  0  0  0  0  0
   -7.8829   12.4473    8.8648 C   0  0  0  0  0  0  0  0  0  0  0  0
   -7.7182   14.1175    9.2633 S   0  0  0  0  0  0  0  0  0  0  0  0
   -6.4381   13.7258   10.3199 C   0  0  0  0  0  0  0  0  0  0  0  0
   -6.1111   12.4515   10.4105 N   0  0  0  0  0  0  0  0  0  0  0  0
   -6.9345   11.7125    9.5796 C   0  0  0  0  0  0  0  0  0  0  0  0
   -6.8885   10.3180    9.4069 C   0  0  0  0  0  0  0  0  0  0  0  0
   -7.7878    9.7023    8.5286 C   0  0  0  0  0  0  0  0  0  0  0  0
   -7.6826    7.9822    8.3578 Cl  0  0  0  0  0  0  0  0  0  0  0  0
   -5.6704   15.0652   11.1939 S   0  0  0  0  0  0  0  0  0  0  0  0
   -4.2153   14.5374   11.8628 N   0  0  0  0  0  0  0  0  0  0  0  0
   -5.3068   16.0549   10.2042 O   0  0  0  0  0  0  0  0  0  0  0  0
   -6.5257   15.3739   12.3185 O   0  0  0  0  0  0  0  0  0  0  0  0
   -3.5629   14.3018   11.1149 H   0  0  0  0  0  0  0  0  0  0  0  0
   -4.3850   13.7125   12.4383 H   0  0  0  0  0  0  0  0  0  0  0  0
   -9.5684    9.7407    6.9817 O   0  0  0  0  0  0  0  0  0  0  0  0
  -11.3923   10.4877    5.6456 C   0  0  0  0  0  0  0  0  0  0  0  0
  -10.9655   10.0222    7.0261 C   0  0  0  0  0  0  0  0  0  0  0  0
 18 19  1  0
 19 17  1  0
 17  1  1  0
  1  2  2  0
  2  3  1  0
  3  4  1  0
  4  5  1  0
  5 11  1  0
 11 12  1  0
 11 13  2  0
 11 14  2  0
  5  6  2  0
  6  7  1  0
  7  8  1  0
  8  9  2  0
  9 10  1  0
  9  1  1  0
  7  3  2  0
 12 15  1  0
 12 16  1  0
M  END
> <minimizedAffinity>
-4.51549

> <CNNscore>
0.5031910539

> <CNNaffinity>
4.2969036102

> <CNN_VS>
2.1621634960

> <CNNaffinity_variance>
0.0853298008

$$$$



 19 20  0  0  0  0  0  0  0  0999 V2000
   -3.0940    7.2627   13.0697 C   0  0  0  0  0  0  0  0  0  0  0  0
   -2.4707    8.4412   12.6373 C   0  0  0  0  0  0  0  0  0  0  0  0
   -1.7797    9.2231   13.5826 C   0  0  0  0  0  0  0  0  0  0  0  0
   -0.9280   10.7040   13.3430 S   0  0  0  0  0  0  0  0  0  0  0  0
   -0.5369   10.7324   15.0028 C   0  0  0  0  0  0  0  0  0  0  0  0
   -0.9838    9.7316   15.7359 N   0  0  0  0  0  0  0  0  0  0  0  0
   -1.6970    8.8625   14.9292 C   0  0  0  0  0  0  0  0  0  0  0  0
   -2.3258    7.6784   15.3524 C   0  0  0  0  0  0  0  0  0  0  0  0
   -3.0155    6.8936   14.4209 C   0  0  0  0  0  0  0  0  0  0  0  0
   -3.7695    5.4468   15.0017 Cl  0  0  0  0  0  0  0  0  0  0  0  0
    0.4309   12.1011   15.5837 S   0  0  0  0  0  0  0  0  0  0  0  0
    1.7453   12.3357   14.5539 N   0  0  0  0  0  0  0  0  0  0  0  0
   -0.3904   13.2828   15.4410 O   0  0  0  0  0  0  0  0  0  0  0  0
    0.9979   11.7019   16.8529 O   0  0  0  0  0  0  0  0  0  0  0  0
    1.4098   12.6212   13.6340 H   0  0  0  0  0  0  0  0  0  0  0  0
    2.2704   11.4653   14.4692 H   0  0  0  0  0  0  0  0  0  0  0  0
   -3.7954    6.4192   12.2457 O   0  0  0  0  0  0  0  0  0  0  0  0
   -5.6156    7.5600   11.2183 C   0  0  0  0  0  0  0  0  0  0  0  0
   -5.2183    6.5107   12.2409 C   0  0  0  0  0  0  0  0  0  0  0  0
 18 19  1  0
 19 17  1  0
 17  1  1  0
  1  2  2  0
  2  3  1  0
  3  4  1  0
  4  5  1  0
  5 11  1  0
 11 12  1  0
 11 13  2  0
 11 14  2  0
  5  6  2  0
  6  7  1  0
  7  8  1  0
  8  9  2  0
  9 10  1  0
  9  1  1  0
  7  3  2  0
 12 15  1  0
 12 16  1  0
M  END
> <minimizedAffinity>
-4.11646

> <CNNscore>
0.4224369824

> <CNNaffinity>
4.0841765404

> <CNN_VS>
1.7253072262

> <CNNaffinity_variance>
1.0265855789

$$$$



 19 20  0  0  0  0  0  0  0  0999 V2000
   -2.3194    7.7676   13.6066 C   0  0  0  0  0  0  0  0  0  0  0  0
   -3.4480    7.2015   14.2150 C   0  0  0  0  0  0  0  0  0  0  0  0
   -3.4872    5.8055   14.3940 C   0  0  0  0  0  0  0  0  0  0  0  0
   -4.7304    4.8426   15.1031 S   0  0  0  0  0  0  0  0  0  0  0  0
   -3.7958    3.4457   14.8133 C   0  0  0  0  0  0  0  0  0  0  0  0
   -2.6267    3.6235   14.2298 N   0  0  0  0  0  0  0  0  0  0  0  0
   -2.4426    4.9732   13.9864 C   0  0  0  0  0  0  0  0  0  0  0  0
   -1.3151    5.5513   13.3771 C   0  0  0  0  0  0  0  0  0  0  0  0
   -1.2658    6.9382   13.1943 C   0  0  0  0  0  0  0  0  0  0  0  0
    0.1485    7.5918   12.4383 Cl  0  0  0  0  0  0  0  0  0  0  0  0
   -4.4828    1.8913   15.3223 S   0  0  0  0  0  0  0  0  0  0  0  0
   -5.9461    2.1581   16.1166 N   0  0  0  0  0  0  0  0  0  0  0  0
   -4.8214    1.1699   14.1155 O   0  0  0  0  0  0  0  0  0  0  0  0
   -3.5906    1.3489   16.3230 O   0  0  0  0  0  0  0  0  0  0  0  0
   -6.6242    2.5438   15.4595 H   0  0  0  0  0  0  0  0  0  0  0  0
   -5.8022    2.8163   16.8824 H   0  0  0  0  0  0  0  0  0  0  0  0
   -2.1644    9.1116   13.3778 O   0  0  0  0  0  0  0  0  0  0  0  0
   -1.0758    9.2715   15.4895 C   0  0  0  0  0  0  0  0  0  0  0  0
   -1.9925    9.9712   14.5024 C   0  0  0  0  0  0  0  0  0  0  0  0
 18 19  1  0
 19 17  1  0
 17  1  1  0
  1  2  2  0
  2  3  1  0
  3  4  1  0
  4  5  1  0
  5 11  1  0
 11 12  1  0
 11 13  2  0
 11 14  2  0
  5  6  2  0
  6  7  1  0
  7  8  1  0
  8  9  2  0
  9 10  1  0
  9  1  1  0
  7  3  2  0
 12 15  1  0
 12 16  1  0
M  END
> <minimizedAffinity>
-5.17984

> <CNNscore>
0.4210768938

> <CNNaffinity>
6.0379486084

> <CNN_VS>
2.5424406528

> <CNNaffinity_variance>
0.3791205883

$$$$



 19 20  0  0  0  0  0  0  0  0999 V2000
   -1.1222   10.7186   13.4933 C   0  0  0  0  0  0  0  0  0  0  0  0
   -1.8982    9.9148   14.3397 C   0  0  0  0  0  0  0  0  0  0  0  0
   -1.9221    8.5254   14.1128 C   0  0  0  0  0  0  0  0  0  0  0  0
   -2.7760    7.3043   14.9820 S   0  0  0  0  0  0  0  0  0  0  0  0
   -2.1293    6.1245   13.9340 C   0  0  0  0  0  0  0  0  0  0  0  0
   -1.3246    6.5529   12.9812 N   0  0  0  0  0  0  0  0  0  0  0  0
   -1.2008    7.9277   13.0771 C   0  0  0  0  0  0  0  0  0  0  0  0
   -0.4257    8.7431   12.2340 C   0  0  0  0  0  0  0  0  0  0  0  0
   -0.3949   10.1257   12.4505 C   0  0  0  0  0  0  0  0  0  0  0  0
    0.5776   11.0778   11.3796 Cl  0  0  0  0  0  0  0  0  0  0  0  0
   -2.5989    4.4385   14.2239 S   0  0  0  0  0  0  0  0  0  0  0  0
   -1.6405    3.7926   15.4517 N   0  0  0  0  0  0  0  0  0  0  0  0
   -3.9440    4.4656   14.7543 O   0  0  0  0  0  0  0  0  0  0  0  0
   -2.2529    3.6982   13.0307 O   0  0  0  0  0  0  0  0  0  0  0  0
   -1.8386    4.2762   16.3277 H   0  0  0  0  0  0  0  0  0  0  0  0
   -0.6560    3.9116   15.2128 H   0  0  0  0  0  0  0  0  0  0  0  0
   -1.0185   12.0815   13.6127 O   0  0  0  0  0  0  0  0  0  0  0  0
   -0.4590   14.0984   14.7481 C   0  0  0  0  0  0  0  0  0  0  0  0
   -0.8082   12.6302   14.9119 C   0  0  0  0  0  0  0  0  0  0  0  0
 18 19  1  0
 19 17  1  0
 17  1  1  0
  1  2  2  0
  2  3  1  0
  3  4  1  0
  4  5  1  0
  5 11  1  0
 11 12  1  0
 11 13  2  0
 11 14  2  0
  5  6  2  0
  6  7  1  0
  7  8  1  0
  8  9  2  0
  9 10  1  0
  9  1  1  0
  7  3  2  0
 12 15  1  0
 12 16  1  0
M  END
> <minimizedAffinity>
-4.26634

> <CNNscore>
0.4052804708

> <CNNaffinity>
4.1627411842

> <CNN_VS>
1.6870777607

> <CNNaffinity_variance>
0.8237966895

$$$$



 19 20  0  0  0  0  0  0  0  0999 V2000
   -1.2969    9.2135   13.7036 C   0  0  0  0  0  0  0  0  0  0  0  0
   -1.5802    8.9597   12.3546 C   0  0  0  0  0  0  0  0  0  0  0  0
   -2.3933    7.8559   12.0336 C   0  0  0  0  0  0  0  0  0  0  0  0
   -2.9035    7.3064   10.4801 S   0  0  0  0  0  0  0  0  0  0  0  0
   -3.7576    6.0324   11.2256 C   0  0  0  0  0  0  0  0  0  0  0  0
   -3.7027    5.9701   12.5417 N   0  0  0  0  0  0  0  0  0  0  0  0
   -2.9227    7.0118   13.0121 C   0  0  0  0  0  0  0  0  0  0  0  0
   -2.6323    7.2753   14.3622 C   0  0  0  0  0  0  0  0  0  0  0  0
   -1.8250    8.3701   14.6924 C   0  0  0  0  0  0  0  0  0  0  0  0
   -1.5025    8.6437   16.3718 Cl  0  0  0  0  0  0  0  0  0  0  0  0
   -4.6361    4.9154   10.1636 S   0  0  0  0  0  0  0  0  0  0  0  0
   -4.9642    3.4881   10.9994 N   0  0  0  0  0  0  0  0  0  0  0  0
   -5.9248    5.5167    9.9006 O   0  0  0  0  0  0  0  0  0  0  0  0
   -3.7250    4.5444    9.1036 O   0  0  0  0  0  0  0  0  0  0  0  0
   -5.6072    3.6835   11.7667 H   0  0  0  0  0  0  0  0  0  0  0  0
   -4.0955    3.1054   11.3727 H   0  0  0  0  0  0  0  0  0  0  0  0
   -0.5191   10.2556   14.1410 O   0  0  0  0  0  0  0  0  0  0  0  0
   -2.1315   12.0055   14.2305 C   0  0  0  0  0  0  0  0  0  0  0  0
   -0.8025   11.5624   13.6457 C   0  0  0  0  0  0  0  0  0  0  0  0
 18 19  1  0
 19 17  1  0
 17  1  1  0
  1  2  2  0
  2  3  1  0
  3  4  1  0
  4  5  1  0
  5 11  1  0
 11 12  1  0
 11 13  2  0
 11 14  2  0
  5  6  2  0
  6  7  1  0
  7  8  1  0
  8  9  2  0
  9 10  1  0
  9  1  1  0
  7  3  2  0
 12 15  1  0
 12 16  1  0
M  END
> <minimizedAffinity>
-4.31306

> <CNNscore>
0.4027439654

> <CNNaffinity>
4.0067362785

> <CNN_VS>
1.6136888266

> <CNNaffinity_variance>
0.7195532918

$$$$



 19 20  0  0  0  0  0  0  0  0999 V2000
   -5.0061    1.8594   16.4409 C   0  0  0  0  0  0  0  0  0  0  0  0
   -3.8217    2.4871   16.0313 C   0  0  0  0  0  0  0  0  0  0  0  0
   -3.9133    3.6277   15.2109 C   0  0  0  0  0  0  0  0  0  0  0  0
   -2.6414    4.5950   14.5611 S   0  0  0  0  0  0  0  0  0  0  0  0
   -3.8021    5.5918   13.8075 C   0  0  0  0  0  0  0  0  0  0  0  0
   -5.0684    5.2737   13.9924 N   0  0  0  0  0  0  0  0  0  0  0  0
   -5.1404    4.1493   14.7956 C   0  0  0  0  0  0  0  0  0  0  0  0
   -6.3223    3.5120   15.2121 C   0  0  0  0  0  0  0  0  0  0  0  0
   -6.2427    2.3773   16.0278 C   0  0  0  0  0  0  0  0  0  0  0  0
   -7.7322    1.6361   16.5083 Cl  0  0  0  0  0  0  0  0  0  0  0  0
   -3.1979    6.9573   12.8496 S   0  0  0  0  0  0  0  0  0  0  0  0
   -1.9224    6.4387   11.8763 N   0  0  0  0  0  0  0  0  0  0  0  0
   -4.2572    7.3277   11.9374 O   0  0  0  0  0  0  0  0  0  0  0  0
   -2.6174    7.8970   13.7831 O   0  0  0  0  0  0  0  0  0  0  0  0
   -2.2689    5.7679   11.1905 H   0  0  0  0  0  0  0  0  0  0  0  0
   -1.2106    5.9947   12.4566 H   0  0  0  0  0  0  0  0  0  0  0  0
   -5.0466    0.7439   17.2387 O   0  0  0  0  0  0  0  0  0  0  0  0
   -6.0391    1.6299   19.2135 C   0  0  0  0  0  0  0  0  0  0  0  0
   -6.1571    0.5847   18.1188 C   0  0  0  0  0  0  0  0  0  0  0  0
 18 19  1  0
 19 17  1  0
 17  1  1  0
  1  2  2  0
  2  3  1  0
  3  4  1  0
  4  5  1  0
  5 11  1  0
 11 12  1  0
 11 13  2  0
 11 14  2  0
  5  6  2  0
  6  7  1  0
  7  8  1  0
  8  9  2  0
  9 10  1  0
  9  1  1  0
  7  3  2  0
 12 15  1  0
 12 16  1  0
M  END
> <minimizedAffinity>
-5.57198

> <CNNscore>
0.4023204446

> <CNNaffinity>
5.5119004250

> <CNN_VS>
2.2175502777

> <CNNaffinity_variance>
0.0157752689

$$$$



 19 20  0  0  0  0  0  0  0  0999 V2000
   -5.2555    2.4890   16.0287 C   0  0  0  0  0  0  0  0  0  0  0  0
   -4.4033    2.2401   14.9442 C   0  0  0  0  0  0  0  0  0  0  0  0
   -4.4523    3.1080   13.8366 C   0  0  0  0  0  0  0  0  0  0  0  0
   -3.5329    3.0500   12.3782 S   0  0  0  0  0  0  0  0  0  0  0  0
   -4.3450    4.4443   11.8261 C   0  0  0  0  0  0  0  0  0  0  0  0
   -5.2511    4.9625   12.6319 N   0  0  0  0  0  0  0  0  0  0  0  0
   -5.3184    4.2023   13.7862 C   0  0  0  0  0  0  0  0  0  0  0  0
   -6.1690    4.4430   14.8794 C   0  0  0  0  0  0  0  0  0  0  0  0
   -6.1285    3.5863   15.9856 C   0  0  0  0  0  0  0  0  0  0  0  0
   -7.1996    3.9338   17.3013 Cl  0  0  0  0  0  0  0  0  0  0  0  0
   -3.8953    5.0634   10.2255 S   0  0  0  0  0  0  0  0  0  0  0  0
   -5.1785    5.9517    9.5870 N   0  0  0  0  0  0  0  0  0  0  0  0
   -2.8275    6.0165   10.4320 O   0  0  0  0  0  0  0  0  0  0  0  0
   -3.7495    3.9141    9.3598 O   0  0  0  0  0  0  0  0  0  0  0  0
   -5.3337    6.7829   10.1575 H   0  0  0  0  0  0  0  0  0  0  0  0
   -6.0218    5.3780    9.5857 H   0  0  0  0  0  0  0  0  0  0  0  0
   -5.3003    1.7167   17.1619 O   0  0  0  0  0  0  0  0  0  0  0  0
   -7.4162    0.6305   17.2759 C   0  0  0  0  0  0  0  0  0  0  0  0
   -5.9232    0.4367   17.0809 C   0  0  0  0  0  0  0  0  0  0  0  0
 18 19  1  0
 19 17  1  0
 17  1  1  0
  1  2  2  0
  2  3  1  0
  3  4  1  0
  4  5  1  0
  5 11  1  0
 11 12  1  0
 11 13  2  0
 11 14  2  0
  5  6  2  0
  6  7  1  0
  7  8  1  0
  8  9  2  0
  9 10  1  0
  9  1  1  0
  7  3  2  0
 12 15  1  0
 12 16  1  0
M  END
> <minimizedAffinity>
-5.78453

> <CNNscore>
0.3332009614

> <CNNaffinity>
5.0172715187

> <CNN_VS>
1.6717597246

> <CNNaffinity_variance>
0.3876307309

$$$$
