


 24 27  0  0  0  0  0  0  0  0999 V2000
   25.8943  -13.6010   -5.4728 N   0  0  0  0  0  0  0  0  0  0  0  0
   25.5883  -13.9612   -6.7897 C   0  0  0  0  0  0  0  0  0  0  0  0
   25.4800  -12.9871   -7.7758 C   0  0  0  0  0  0  0  0  0  0  0  0
   25.0613  -13.3362   -9.0592 C   0  0  0  0  0  0  0  0  0  0  0  0
   24.7117  -14.6723   -9.3701 C   0  0  0  0  0  0  0  0  0  0  0  0
   24.2845  -15.1395  -10.6222 C   0  0  0  0  0  0  0  0  0  0  0  0
   23.8602  -16.3971  -10.8286 N   0  0  0  0  0  0  0  0  0  0  0  0
   23.9115  -17.2379   -9.7826 C   0  0  0  0  0  0  0  0  0  0  0  0
   24.3498  -16.9000   -8.5572 N   0  0  0  0  0  0  0  0  0  0  0  0
   24.7338  -15.6348   -8.3582 C   0  0  0  0  0  0  0  0  0  0  0  0
   25.1595  -15.2591   -7.0874 C   0  0  0  0  0  0  0  0  0  0  0  0
   26.1955  -12.6860   -5.2700 H   0  0  0  0  0  0  0  0  0  0  0  0
   25.8083  -14.2627   -4.7489 H   0  0  0  0  0  0  0  0  0  0  0  0
   23.4663  -18.6316   -9.9953 C   0  0  0  0  0  0  0  0  0  0  0  0
   23.1702  -19.1229  -11.2822 C   0  0  0  0  0  0  0  0  0  0  0  0
   22.7491  -20.4416  -11.4851 C   0  0  0  0  0  0  0  0  0  0  0  0
   22.6135  -21.3039  -10.4018 C   0  0  0  0  0  0  0  0  0  0  0  0
   22.8978  -20.8490   -9.1181 C   0  0  0  0  0  0  0  0  0  0  0  0
   23.3185  -19.5297   -8.9196 C   0  0  0  0  0  0  0  0  0  0  0  0
   24.2670  -14.3222  -11.7797 N   0  0  0  0  0  0  0  0  0  0  0  0
   23.5012  -13.7406  -11.9907 H   0  0  0  0  0  0  0  0  0  0  0  0
   25.4574  -14.3873  -12.6547 C   0  0  0  0  0  0  0  0  0  0  0  0
   25.9536  -15.7006  -13.1922 C   0  0  0  0  0  0  0  0  0  0  0  0
   25.2988  -14.7132  -14.1143 C   0  0  0  0  0  0  0  0  0  0  0  0
  1  2  1  0
  2  3  2  0
  3  4  1  0
  4  5  2  0
  5  6  1  0
  6 20  1  0
 20 22  1  0
 22 23  1  0
 23 24  1  0
  6  7  2  0
  7  8  1  0
  8 14  1  0
 14 15  2  0
 15 16  1  0
 16 17  2  0
 17 18  1  0
 18 19  2  0
  8  9  2  0
  9 10  1  0
 10 11  2  0
 11  2  1  0
 10  5  1  0
 24 22  1  0
 19 14  1  0
  1 12  1  0
  1 13  1  0
 20 21  1  0
M  END
> <minimizedAffinity>
-10.34635

> <CNNscore>
0.8846873045

> <CNNaffinity>
6.8677043915

> <CNN_VS>
6.0757708549

> <CNNaffinity_variance>
0.2193817645

$$$$



 24 27  0  0  0  0  0  0  0  0999 V2000
   33.0362  -13.3121   -0.7111 N   0  0  0  0  0  0  0  0  0  0  0  0
   32.0394  -14.2736   -0.9101 C   0  0  0  0  0  0  0  0  0  0  0  0
   32.3773  -15.6146   -1.0528 C   0  0  0  0  0  0  0  0  0  0  0  0
   31.3945  -16.5527   -1.3668 C   0  0  0  0  0  0  0  0  0  0  0  0
   30.0519  -16.1551   -1.5749 C   0  0  0  0  0  0  0  0  0  0  0  0
   28.9821  -17.0072   -1.8882 C   0  0  0  0  0  0  0  0  0  0  0  0
   27.7510  -16.5584   -2.1836 N   0  0  0  0  0  0  0  0  0  0  0  0
   27.5516  -15.2322   -2.1130 C   0  0  0  0  0  0  0  0  0  0  0  0
   28.4979  -14.3387   -1.7754 N   0  0  0  0  0  0  0  0  0  0  0  0
   29.7276  -14.7977   -1.5203 C   0  0  0  0  0  0  0  0  0  0  0  0
   30.7278  -13.8838   -1.2012 C   0  0  0  0  0  0  0  0  0  0  0  0
   33.9573  -13.5931   -0.5064 H   0  0  0  0  0  0  0  0  0  0  0  0
   32.8165  -12.3546   -0.7756 H   0  0  0  0  0  0  0  0  0  0  0  0
   26.1979  -14.7209   -2.4163 C   0  0  0  0  0  0  0  0  0  0  0  0
   26.0056  -13.5172   -3.1231 C   0  0  0  0  0  0  0  0  0  0  0  0
   24.7252  -13.0323   -3.4113 C   0  0  0  0  0  0  0  0  0  0  0  0
   23.6023  -13.7421   -2.9979 C   0  0  0  0  0  0  0  0  0  0  0  0
   23.7587  -14.9340   -2.2976 C   0  0  0  0  0  0  0  0  0  0  0  0
   25.0407  -15.4153   -2.0116 C   0  0  0  0  0  0  0  0  0  0  0  0
   29.1094  -18.4182   -1.9170 N   0  0  0  0  0  0  0  0  0  0  0  0
   29.9271  -18.8702   -1.6065 H   0  0  0  0  0  0  0  0  0  0  0  0
   27.9518  -19.1773   -2.4373 C   0  0  0  0  0  0  0  0  0  0  0  0
   28.1448  -20.4511   -3.2119 C   0  0  0  0  0  0  0  0  0  0  0  0
   27.5826  -20.4983   -1.8206 C   0  0  0  0  0  0  0  0  0  0  0  0
  1  2  1  0
  2  3  2  0
  3  4  1  0
  4  5  2  0
  5  6  1  0
  6 20  1  0
 20 22  1  0
 22 23  1  0
 23 24  1  0
  6  7  2  0
  7  8  1  0
  8 14  1  0
 14 15  2  0
 15 16  1  0
 16 17  2  0
 17 18  1  0
 18 19  2  0
  8  9  2  0
  9 10  1  0
 10 11  2  0
 11  2  1  0
 10  5  1  0
 24 22  1  0
 19 14  1  0
  1 12  1  0
  1 13  1  0
 20 21  1  0
M  END
> <minimizedAffinity>
-4.23174

> <CNNscore>
0.5447937250

> <CNNaffinity>
4.2294688225

> <CNN_VS>
2.3041880131

> <CNNaffinity_variance>
0.0666018054

$$$$



 24 27  0  0  0  0  0  0  0  0999 V2000
   25.7643  -13.6347   -4.1612 N   0  0  0  0  0  0  0  0  0  0  0  0
   24.4699  -13.6552   -3.6304 C   0  0  0  0  0  0  0  0  0  0  0  0
   23.7392  -12.4777   -3.5189 C   0  0  0  0  0  0  0  0  0  0  0  0
   22.4979  -12.4837   -2.8836 C   0  0  0  0  0  0  0  0  0  0  0  0
   21.9780  -13.6728   -2.3180 C   0  0  0  0  0  0  0  0  0  0  0  0
   20.7437  -13.7994   -1.6629 C   0  0  0  0  0  0  0  0  0  0  0  0
   20.3532  -14.9285   -1.0488 N   0  0  0  0  0  0  0  0  0  0  0  0
   21.1788  -15.9846   -1.1308 C   0  0  0  0  0  0  0  0  0  0  0  0
   22.3585  -15.9783   -1.7756 N   0  0  0  0  0  0  0  0  0  0  0  0
   22.7501  -14.8362   -2.3501 C   0  0  0  0  0  0  0  0  0  0  0  0
   23.9837  -14.8022   -2.9940 C   0  0  0  0  0  0  0  0  0  0  0  0
   26.1004  -12.8243   -4.6078 H   0  0  0  0  0  0  0  0  0  0  0  0
   26.3390  -14.4307   -4.0879 H   0  0  0  0  0  0  0  0  0  0  0  0
   20.7573  -17.2419   -0.4771 C   0  0  0  0  0  0  0  0  0  0  0  0
   19.7202  -17.2657    0.4764 C   0  0  0  0  0  0  0  0  0  0  0  0
   19.3201  -18.4548    1.0956 C   0  0  0  0  0  0  0  0  0  0  0  0
   19.9498  -19.6532    0.7749 C   0  0  0  0  0  0  0  0  0  0  0  0
   20.9777  -19.6631   -0.1626 C   0  0  0  0  0  0  0  0  0  0  0  0
   21.3748  -18.4719   -0.7793 C   0  0  0  0  0  0  0  0  0  0  0  0
   19.8002  -12.7442   -1.5955 N   0  0  0  0  0  0  0  0  0  0  0  0
   20.0755  -11.8003   -1.6447 H   0  0  0  0  0  0  0  0  0  0  0  0
   18.3811  -13.1330   -1.4476 C   0  0  0  0  0  0  0  0  0  0  0  0
   17.3507  -12.1431   -0.9806 C   0  0  0  0  0  0  0  0  0  0  0  0
   17.3539  -12.6031   -2.4097 C   0  0  0  0  0  0  0  0  0  0  0  0
  1  2  1  0
  2  3  2  0
  3  4  1  0
  4  5  2  0
  5  6  1  0
  6 20  1  0
 20 22  1  0
 22 23  1  0
 23 24  1  0
  6  7  2  0
  7  8  1  0
  8 14  1  0
 14 15  2  0
 15 16  1  0
 16 17  2  0
 17 18  1  0
 18 19  2  0
  8  9  2  0
  9 10  1  0
 10 11  2  0
 11  2  1  0
 10  5  1  0
 24 22  1  0
 19 14  1  0
  1 12  1  0
  1 13  1  0
 20 21  1  0
M  END
> <minimizedAffinity>
-3.89864

> <CNNscore>
0.5285938382

> <CNNaffinity>
3.9810123444

> <CNN_VS>
2.1043386459

> <CNNaffinity_variance>
0.3246524036

$$$$



 24 27  0  0  0  0  0  0  0  0999 V2000
   26.0236  -13.6200   -4.6792 N   0  0  0  0  0  0  0  0  0  0  0  0
   24.8082  -13.6853   -3.9893 C   0  0  0  0  0  0  0  0  0  0  0  0
   24.1704  -12.5195   -3.5807 C   0  0  0  0  0  0  0  0  0  0  0  0
   23.0216  -12.5911   -2.7936 C   0  0  0  0  0  0  0  0  0  0  0  0
   22.5064  -13.8410   -2.3737 C   0  0  0  0  0  0  0  0  0  0  0  0
   21.3599  -14.0350   -1.5886 C   0  0  0  0  0  0  0  0  0  0  0  0
   20.9826  -15.2394   -1.1288 N   0  0  0  0  0  0  0  0  0  0  0  0
   21.7254  -16.2947   -1.5005 C   0  0  0  0  0  0  0  0  0  0  0  0
   22.8121  -16.2188   -2.2887 N   0  0  0  0  0  0  0  0  0  0  0  0
   23.1962  -15.0086   -2.7079 C   0  0  0  0  0  0  0  0  0  0  0  0
   24.3379  -14.9077   -3.4977 C   0  0  0  0  0  0  0  0  0  0  0  0
   26.3489  -12.7566   -5.0226 H   0  0  0  0  0  0  0  0  0  0  0  0
   26.5536  -14.4374   -4.8212 H   0  0  0  0  0  0  0  0  0  0  0  0
   21.3148  -17.6311   -1.0197 C   0  0  0  0  0  0  0  0  0  0  0  0
   21.8156  -18.8112   -1.6045 C   0  0  0  0  0  0  0  0  0  0  0  0
   21.4282  -20.0765   -1.1503 C   0  0  0  0  0  0  0  0  0  0  0  0
   20.5273  -20.1926   -0.0966 C   0  0  0  0  0  0  0  0  0  0  0  0
   20.0143  -19.0463    0.5019 C   0  0  0  0  0  0  0  0  0  0  0  0
   20.4042  -17.7830    0.0448 C   0  0  0  0  0  0  0  0  0  0  0  0
   20.4983  -12.9737   -1.2152 N   0  0  0  0  0  0  0  0  0  0  0  0
   20.6603  -12.4361   -0.4065 H   0  0  0  0  0  0  0  0  0  0  0  0
   19.3436  -12.7147   -2.1020 C   0  0  0  0  0  0  0  0  0  0  0  0
   18.1583  -11.9251   -1.6208 C   0  0  0  0  0  0  0  0  0  0  0  0
   19.0978  -11.3272   -2.6277 C   0  0  0  0  0  0  0  0  0  0  0  0
  1  2  1  0
  2  3  2  0
  3  4  1  0
  4  5  2  0
  5  6  1  0
  6 20  1  0
 20 22  1  0
 22 23  1  0
 23 24  1  0
  6  7  2  0
  7  8  1  0
  8 14  1  0
 14 15  2  0
 15 16  1  0
 16 17  2  0
 17 18  1  0
 18 19  2  0
  8  9  2  0
  9 10  1  0
 10 11  2  0
 11  2  1  0
 10  5  1  0
 24 22  1  0
 19 14  1  0
  1 12  1  0
  1 13  1  0
 20 21  1  0
M  END
> <minimizedAffinity>
-3.82363

> <CNNscore>
0.4682144821

> <CNNaffinity>
4.3343739510

> <CNN_VS>
2.0294165611

> <CNNaffinity_variance>
0.0893842280

$$$$



 24 27  0  0  0  0  0  0  0  0999 V2000
   20.9923  -22.0734  -10.4730 N   0  0  0  0  0  0  0  0  0  0  0  0
   21.9254  -21.0746  -10.1743 C   0  0  0  0  0  0  0  0  0  0  0  0
   22.1615  -20.7079   -8.8542 C   0  0  0  0  0  0  0  0  0  0  0  0
   23.0040  -19.6343   -8.5678 C   0  0  0  0  0  0  0  0  0  0  0  0
   23.6042  -18.8852   -9.6083 C   0  0  0  0  0  0  0  0  0  0  0  0
   24.4698  -17.7937   -9.4408 C   0  0  0  0  0  0  0  0  0  0  0  0
   24.9204  -17.0525  -10.4664 N   0  0  0  0  0  0  0  0  0  0  0  0
   24.5532  -17.4319  -11.7012 C   0  0  0  0  0  0  0  0  0  0  0  0
   23.7680  -18.4901  -11.9687 N   0  0  0  0  0  0  0  0  0  0  0  0
   23.2974  -19.1957  -10.9350 C   0  0  0  0  0  0  0  0  0  0  0  0
   22.4564  -20.2747  -11.1917 C   0  0  0  0  0  0  0  0  0  0  0  0
   20.6224  -22.6330   -9.7523 H   0  0  0  0  0  0  0  0  0  0  0  0
   20.7055  -22.2167  -11.4038 H   0  0  0  0  0  0  0  0  0  0  0  0
   25.0547  -16.6395  -12.8441 C   0  0  0  0  0  0  0  0  0  0  0  0
   26.1118  -17.1004  -13.6537 C   0  0  0  0  0  0  0  0  0  0  0  0
   26.5873  -16.3517  -14.7358 C   0  0  0  0  0  0  0  0  0  0  0  0
   26.0149  -15.1196  -15.0354 C   0  0  0  0  0  0  0  0  0  0  0  0
   24.9696  -14.6364  -14.2548 C   0  0  0  0  0  0  0  0  0  0  0  0
   24.4972  -15.3881  -13.1737 C   0  0  0  0  0  0  0  0  0  0  0  0
   24.9457  -17.3811   -8.1714 N   0  0  0  0  0  0  0  0  0  0  0  0
   25.5331  -17.9544   -7.6278 H   0  0  0  0  0  0  0  0  0  0  0  0
   24.5153  -16.0455   -7.7048 C   0  0  0  0  0  0  0  0  0  0  0  0
   25.5016  -15.0738   -7.1193 C   0  0  0  0  0  0  0  0  0  0  0  0
   24.9127  -14.8172   -8.4763 C   0  0  0  0  0  0  0  0  0  0  0  0
  1  2  1  0
  2  3  2  0
  3  4  1  0
  4  5  2  0
  5  6  1  0
  6 20  1  0
 20 22  1  0
 22 23  1  0
 23 24  1  0
  6  7  2  0
  7  8  1  0
  8 14  1  0
 14 15  2  0
 15 16  1  0
 16 17  2  0
 17 18  1  0
 18 19  2  0
  8  9  2  0
  9 10  1  0
 10 11  2  0
 11  2  1  0
 10  5  1  0
 24 22  1  0
 19 14  1  0
  1 12  1  0
  1 13  1  0
 20 21  1  0
M  END
> <minimizedAffinity>
-9.28933

> <CNNscore>
0.4575498998

> <CNNaffinity>
6.0164570808

> <CNN_VS>
2.7528293133

> <CNNaffinity_variance>
0.2539751530

$$$$



 24 27  0  0  0  0  0  0  0  0999 V2000
   32.2448  -13.1447   -0.6118 N   0  0  0  0  0  0  0  0  0  0  0  0
   31.0732  -13.7705   -1.0515 C   0  0  0  0  0  0  0  0  0  0  0  0
   29.8905  -13.0477   -1.1597 C   0  0  0  0  0  0  0  0  0  0  0  0
   28.7014  -13.6991   -1.4855 C   0  0  0  0  0  0  0  0  0  0  0  0
   28.6716  -15.1011   -1.6795 C   0  0  0  0  0  0  0  0  0  0  0  0
   27.5401  -15.8602   -2.0145 C   0  0  0  0  0  0  0  0  0  0  0  0
   27.5508  -17.2020   -2.0764 N   0  0  0  0  0  0  0  0  0  0  0  0
   28.7261  -17.8137   -1.8576 C   0  0  0  0  0  0  0  0  0  0  0  0
   29.8751  -17.1738   -1.5781 N   0  0  0  0  0  0  0  0  0  0  0  0
   29.8402  -15.8405   -1.4833 C   0  0  0  0  0  0  0  0  0  0  0  0
   31.0134  -15.1638   -1.1622 C   0  0  0  0  0  0  0  0  0  0  0  0
   32.2802  -12.1638   -0.5361 H   0  0  0  0  0  0  0  0  0  0  0  0
   33.0336  -13.6853   -0.3780 H   0  0  0  0  0  0  0  0  0  0  0  0
   28.7617  -19.2894   -1.9403 C   0  0  0  0  0  0  0  0  0  0  0  0
   29.4646  -20.0641   -0.9963 C   0  0  0  0  0  0  0  0  0  0  0  0
   29.4988  -21.4607   -1.0729 C   0  0  0  0  0  0  0  0  0  0  0  0
   28.8285  -22.1185   -2.0993 C   0  0  0  0  0  0  0  0  0  0  0  0
   28.1256  -21.3820   -3.0474 C   0  0  0  0  0  0  0  0  0  0  0  0
   28.0939  -19.9858   -2.9671 C   0  0  0  0  0  0  0  0  0  0  0  0
   26.2867  -15.2735   -2.3193 N   0  0  0  0  0  0  0  0  0  0  0  0
   25.4991  -15.4080   -1.7441 H   0  0  0  0  0  0  0  0  0  0  0  0
   26.2219  -14.4491   -3.5453 C   0  0  0  0  0  0  0  0  0  0  0  0
   25.1671  -14.6925   -4.5884 C   0  0  0  0  0  0  0  0  0  0  0  0
   25.1006  -13.4638   -3.7283 C   0  0  0  0  0  0  0  0  0  0  0  0
  1  2  1  0
  2  3  2  0
  3  4  1  0
  4  5  2  0
  5  6  1  0
  6 20  1  0
 20 22  1  0
 22 23  1  0
 23 24  1  0
  6  7  2  0
  7  8  1  0
  8 14  1  0
 14 15  2  0
 15 16  1  0
 16 17  2  0
 17 18  1  0
 18 19  2  0
  8  9  2  0
  9 10  1  0
 10 11  2  0
 11  2  1  0
 10  5  1  0
 24 22  1  0
 19 14  1  0
  1 12  1  0
  1 13  1  0
 20 21  1  0
M  END
> <minimizedAffinity>
-3.88541

> <CNNscore>
0.3704679608

> <CNNaffinity>
4.1327290535

> <CNN_VS>
1.5310436487

> <CNNaffinity_variance>
0.1020599380

$$$$



 24 27  0  0  0  0  0  0  0  0999 V2000
   24.4954  -13.5107  -13.5948 N   0  0  0  0  0  0  0  0  0  0  0  0
   24.5371  -14.5293  -12.6365 C   0  0  0  0  0  0  0  0  0  0  0  0
   24.1492  -15.8220  -12.9701 C   0  0  0  0  0  0  0  0  0  0  0  0
   24.0810  -16.8067  -11.9851 C   0  0  0  0  0  0  0  0  0  0  0  0
   24.3728  -16.5025  -10.6336 C   0  0  0  0  0  0  0  0  0  0  0  0
   24.3432  -17.4088   -9.5629 C   0  0  0  0  0  0  0  0  0  0  0  0
   24.5216  -17.0375   -8.2844 N   0  0  0  0  0  0  0  0  0  0  0  0
   24.7944  -15.7423   -8.0574 C   0  0  0  0  0  0  0  0  0  0  0  0
   24.8921  -14.8069   -9.0183 N   0  0  0  0  0  0  0  0  0  0  0  0
   24.6753  -15.1850  -10.2823 C   0  0  0  0  0  0  0  0  0  0  0  0
   24.7400  -14.2234  -11.2866 C   0  0  0  0  0  0  0  0  0  0  0  0
   24.3523  -13.7327  -14.5433 H   0  0  0  0  0  0  0  0  0  0  0  0
   24.6091  -12.5720  -13.3208 H   0  0  0  0  0  0  0  0  0  0  0  0
   25.0127  -15.3181   -6.6580 C   0  0  0  0  0  0  0  0  0  0  0  0
   24.6692  -16.1495   -5.5735 C   0  0  0  0  0  0  0  0  0  0  0  0
   24.8754  -15.7497   -4.2486 C   0  0  0  0  0  0  0  0  0  0  0  0
   25.4321  -14.5042   -3.9756 C   0  0  0  0  0  0  0  0  0  0  0  0
   25.7817  -13.6599   -5.0246 C   0  0  0  0  0  0  0  0  0  0  0  0
   25.5738  -14.0635   -6.3478 C   0  0  0  0  0  0  0  0  0  0  0  0
   24.1244  -18.7976   -9.7404 N   0  0  0  0  0  0  0  0  0  0  0  0
   24.8028  -19.4646   -9.4872 H   0  0  0  0  0  0  0  0  0  0  0  0
   22.8253  -19.1941  -10.3252 C   0  0  0  0  0  0  0  0  0  0  0  0
   22.7250  -20.3536  -11.2766 C   0  0  0  0  0  0  0  0  0  0  0  0
   22.1652  -20.4729   -9.8887 C   0  0  0  0  0  0  0  0  0  0  0  0
  1  2  1  0
  2  3  2  0
  3  4  1  0
  4  5  2  0
  5  6  1  0
  6 20  1  0
 20 22  1  0
 22 23  1  0
 23 24  1  0
  6  7  2  0
  7  8  1  0
  8 14  1  0
 14 15  2  0
 15 16  1  0
 16 17  2  0
 17 18  1  0
 18 19  2  0
  8  9  2  0
  9 10  1  0
 10 11  2  0
 11  2  1  0
 10  5  1  0
 24 22  1  0
 19 14  1  0
  1 12  1  0
  1 13  1  0
 20 21  1  0
M  END
> <minimizedAffinity>
-7.96204

> <CNNscore>
0.3651880920

> <CNNaffinity>
6.0977988243

> <CNN_VS>
2.2268435955

> <CNNaffinity_variance>
0.0286069419

$$$$



 24 27  0  0  0  0  0  0  0  0999 V2000
   24.8301  -14.0754  -14.5552 N   0  0  0  0  0  0  0  0  0  0  0  0
   24.6369  -14.4894  -13.2327 C   0  0  0  0  0  0  0  0  0  0  0  0
   25.1383  -13.7314  -12.1806 C   0  0  0  0  0  0  0  0  0  0  0  0
   25.0458  -14.2053  -10.8724 C   0  0  0  0  0  0  0  0  0  0  0  0
   24.4728  -15.4704  -10.5978 C   0  0  0  0  0  0  0  0  0  0  0  0
   24.3219  -16.0453   -9.3268 C   0  0  0  0  0  0  0  0  0  0  0  0
   23.8718  -17.2968   -9.1381 N   0  0  0  0  0  0  0  0  0  0  0  0
   23.5047  -17.9846  -10.2316 C   0  0  0  0  0  0  0  0  0  0  0  0
   23.5654  -17.5054  -11.4863 N   0  0  0  0  0  0  0  0  0  0  0  0
   24.0504  -16.2717  -11.6609 C   0  0  0  0  0  0  0  0  0  0  0  0
   24.1512  -15.7717  -12.9560 C   0  0  0  0  0  0  0  0  0  0  0  0
   25.1722  -13.1716  -14.7431 H   0  0  0  0  0  0  0  0  0  0  0  0
   24.6238  -14.6879  -15.2978 H   0  0  0  0  0  0  0  0  0  0  0  0
   22.9888  -19.3572  -10.0422 C   0  0  0  0  0  0  0  0  0  0  0  0
   23.0536  -20.0033   -8.7917 C   0  0  0  0  0  0  0  0  0  0  0  0
   22.5655  -21.3020   -8.6109 C   0  0  0  0  0  0  0  0  0  0  0  0
   21.9991  -21.9883   -9.6803 C   0  0  0  0  0  0  0  0  0  0  0  0
   21.9207  -21.3780  -10.9280 C   0  0  0  0  0  0  0  0  0  0  0  0
   22.4098  -20.0794  -11.1046 C   0  0  0  0  0  0  0  0  0  0  0  0
   24.6301  -15.3512   -8.1304 N   0  0  0  0  0  0  0  0  0  0  0  0
   24.2189  -15.5957   -7.2700 H   0  0  0  0  0  0  0  0  0  0  0  0
   25.6007  -14.2409   -8.2400 C   0  0  0  0  0  0  0  0  0  0  0  0
   25.2103  -12.8324   -7.8887 C   0  0  0  0  0  0  0  0  0  0  0  0
   26.1456  -13.5952   -6.9958 C   0  0  0  0  0  0  0  0  0  0  0  0
  1  2  1  0
  2  3  2  0
  3  4  1  0
  4  5  2  0
  5  6  1  0
  6 20  1  0
 20 22  1  0
 22 23  1  0
 23 24  1  0
  6  7  2  0
  7  8  1  0
  8 14  1  0
 14 15  2  0
 15 16  1  0
 16 17  2  0
 17 18  1  0
 18 19  2  0
  8  9  2  0
  9 10  1  0
 10 11  2  0
 11  2  1  0
 10  5  1  0
 24 22  1  0
 19 14  1  0
  1 12  1  0
  1 13  1  0
 20 21  1  0
M  END
> <minimizedAffinity>
-8.58290

> <CNNscore>
0.3515717685

> <CNNaffinity>
5.9475913048

> <CNN_VS>
2.0910050869

> <CNNaffinity_variance>
0.3072338402

$$$$



 24 27  0  0  0  0  0  0  0  0999 V2000
   30.4758  -13.0084   -0.8923 N   0  0  0  0  0  0  0  0  0  0  0  0
   29.3662  -13.7105   -1.3754 C   0  0  0  0  0  0  0  0  0  0  0  0
   28.1619  -13.0519   -1.5966 C   0  0  0  0  0  0  0  0  0  0  0  0
   27.0283  -13.7750   -1.9661 C   0  0  0  0  0  0  0  0  0  0  0  0
   27.0754  -15.1844   -2.0908 C   0  0  0  0  0  0  0  0  0  0  0  0
   26.0047  -16.0125   -2.4602 C   0  0  0  0  0  0  0  0  0  0  0  0
   26.0803  -17.3536   -2.4538 N   0  0  0  0  0  0  0  0  0  0  0  0
   27.2648  -17.8965   -2.1283 C   0  0  0  0  0  0  0  0  0  0  0  0
   28.3621  -17.1890   -1.8070 N   0  0  0  0  0  0  0  0  0  0  0  0
   28.2604  -15.8560   -1.7819 C   0  0  0  0  0  0  0  0  0  0  0  0
   29.3773  -15.1086   -1.4195 C   0  0  0  0  0  0  0  0  0  0  0  0
   30.4616  -12.0244   -0.8639 H   0  0  0  0  0  0  0  0  0  0  0  0
   31.2709  -13.4983   -0.5807 H   0  0  0  0  0  0  0  0  0  0  0  0
   27.3728  -19.3710   -2.1341 C   0  0  0  0  0  0  0  0  0  0  0  0
   26.5243  -20.1756   -1.3480 C   0  0  0  0  0  0  0  0  0  0  0  0
   26.6250  -21.5711   -1.3527 C   0  0  0  0  0  0  0  0  0  0  0  0
   27.5804  -22.1977   -2.1465 C   0  0  0  0  0  0  0  0  0  0  0  0
   28.4336  -21.4312   -2.9339 C   0  0  0  0  0  0  0  0  0  0  0  0
   28.3295  -20.0362   -2.9263 C   0  0  0  0  0  0  0  0  0  0  0  0
   24.7493  -15.5026   -2.8751 N   0  0  0  0  0  0  0  0  0  0  0  0
   24.6713  -14.8633   -3.6198 H   0  0  0  0  0  0  0  0  0  0  0  0
   23.5625  -15.9794   -2.1329 C   0  0  0  0  0  0  0  0  0  0  0  0
   22.2213  -15.3246   -2.3121 C   0  0  0  0  0  0  0  0  0  0  0  0
   22.4622  -16.7011   -2.8611 C   0  0  0  0  0  0  0  0  0  0  0  0
  1  2  1  0
  2  3  2  0
  3  4  1  0
  4  5  2  0
  5  6  1  0
  6 20  1  0
 20 22  1  0
 22 23  1  0
 23 24  1  0
  6  7  2  0
  7  8  1  0
  8 14  1  0
 14 15  2  0
 15 16  1  0
 16 17  2  0
 17 18  1  0
 18 19  2  0
  8  9  2  0
  9 10  1  0
 10 11  2  0
 11  2  1  0
 10  5  1  0
 24 22  1  0
 19 14  1  0
  1 12  1  0
  1 13  1  0
 20 21  1  0
M  END
> <minimizedAffinity>
-3.78629

> <CNNscore>
0.3309699893

> <CNNaffinity>
4.0140099525

> <CNN_VS>
1.3285168409

> <CNNaffinity_variance>
0.1392298192

$$$$
