


 42 43  0  0  0  0  0  0  0  0999 V2000
   38.5836    1.2092   32.1379 C   0  0  0  0  0  0  0  0  0  0  0  0
   39.5341    0.0438   32.4983 C   0  0  0  0  0  0  0  0  0  0  0  0
   40.3616    0.2114   33.7999 C   0  0  0  0  0  0  0  0  0  0  0  0
   39.5516    0.7584   34.9730 C   0  0  0  0  0  0  0  0  0  0  0  0
   41.6531    1.0638   33.6046 C   0  0  0  0  0  0  0  0  0  0  0  0
   42.6621    0.3477   32.7161 C   0  0  0  0  0  0  0  0  0  0  0  0
   42.9008    0.7845   31.4003 C   0  0  0  0  0  0  0  0  0  0  0  0
   43.7208    0.0383   30.5494 C   0  0  0  0  0  0  0  0  0  0  0  0
   44.3356   -1.1270   31.0146 C   0  0  0  0  0  0  0  0  0  0  0  0
   44.1146   -1.5523   32.3142 C   0  0  0  0  0  0  0  0  0  0  0  0
   44.6790   -2.7291   32.7171 O   0  0  0  0  0  0  0  0  0  0  0  0
   43.2888   -0.8268   33.1577 C   0  0  0  0  0  0  0  0  0  0  0  0
   43.0931   -1.2806   34.4041 F   0  0  0  0  0  0  0  0  0  0  0  0
   43.8968    0.3260   29.1818 N   0  0  0  0  0  0  0  0  0  0  0  0
   43.4231    1.4311   28.4901 C   0  0  0  0  0  0  0  0  0  0  0  0
   43.1011    2.5257   28.9379 O   0  0  0  0  0  0  0  0  0  0  0  0
   43.3698    1.1567   27.0300 C   0  0  0  0  0  0  0  0  0  0  0  0
   44.0586    2.1216   26.1377 C   0  0  0  0  0  0  0  0  0  0  0  0
   42.6595    0.0589   26.6745 C   0  0  0  0  0  0  0  0  0  0  0  0
   42.3929   -0.4849   25.3071 C   0  0  0  0  0  0  0  0  0  0  0  0
   40.9350   -0.2657   24.8537 C   0  0  0  0  0  0  0  0  0  0  0  0
   39.8724   -1.0421   25.6887 C   0  0  0  0  0  0  0  0  0  0  0  0
   39.7326   -2.4679   25.1440 C   0  0  0  0  0  0  0  0  0  0  0  0
   38.5339   -0.2499   25.8877 C   0  0  0  0  0  0  0  0  0  0  0  0
   37.9612   -0.5949   27.2746 C   0  0  0  0  0  0  0  0  0  0  0  0
   37.1702   -1.8643   27.3737 C   0  0  0  0  0  0  0  0  0  0  0  0
   38.2355    0.1954   28.3417 C   0  0  0  0  0  0  0  0  0  0  0  0
   37.8953    0.0431   29.8338 C   0  0  0  0  0  0  0  0  0  0  0  0
   36.4134   -0.2574   30.1117 C   0  0  0  0  0  0  0  0  0  0  0  0
   38.4011    1.3219   30.5999 C   0  0  0  0  0  0  0  0  0  0  0  0
   37.5566    2.4376   30.2587 O   0  0  0  0  0  0  0  0  0  0  0  0
   45.2350   -3.2062   32.1329 H   0  0  0  0  0  0  0  0  0  0  0  0
   44.4130   -0.3296   28.6592 H   0  0  0  0  0  0  0  0  0  0  0  0
   36.6571    2.2731   30.5823 H   0  0  0  0  0  0  0  0  0  0  0  0
   36.6934    2.1349   33.3103 C   0  0  0  0  0  0  0  0  0  0  0  0
   37.3874    0.9548   32.8884 O   0  0  0  0  0  0  0  0  0  0  0  0
   37.4582   -0.4657   24.9521 O   0  0  0  0  0  0  0  0  0  0  0  0
   36.5814    0.5178   24.6892 C   0  0  0  0  0  0  0  0  0  0  0  0
   37.1712    1.7337   24.8270 N   0  0  0  0  0  0  0  0  0  0  0  0
   35.4164    0.4107   24.3518 O   0  0  0  0  0  0  0  0  0  0  0  0
   38.1148    1.7949   25.1010 H   0  0  0  0  0  0  0  0  0  0  0  0
   36.6550    2.5538   24.6529 H   0  0  0  0  0  0  0  0  0  0  0  0
 35 36  1  0
  1 36  1  0
  1  2  1  0
  2  3  1  0
  3  4  1  0
  3  5  1  0
  5  6  1  0
  6  7  2  0
  7  8  1  0
  8  9  2  0
  9 10  1  0
 10 11  1  0
 10 12  2  0
 12 13  1  0
  8 14  1  0
 14 15  1  0
 15 16  2  0
 15 17  1  0
 17 18  1  0
 17 19  2  0
 19 20  1  0
 20 21  1  0
 21 22  1  0
 22 23  1  0
 22 24  1  0
 24 37  1  0
 37 38  1  0
 38 39  1  0
 38 40  2  0
 24 25  1  0
 25 26  1  0
 25 27  2  0
 27 28  1  0
 28 29  1  0
 28 30  1  0
 30 31  1  0
 30  1  1  0
 12  6  1  0
 11 32  1  0
 14 33  1  0
 39 41  1  0
 39 42  1  0
 31 34  1  0
M  END
> <minimizedAffinity>
-7.45577

> <CNNscore>
0.2850462198

> <CNNaffinity>
5.3962206841

> <CNN_VS>
1.5381723642

> <CNNaffinity_variance>
1.1356810331

$$$$



 42 43  0  0  0  0  0  0  0  0999 V2000
   37.6243    0.5927   30.5734 C   0  0  0  0  0  0  0  0  0  0  0  0
   38.7873    1.4583   31.1114 C   0  0  0  0  0  0  0  0  0  0  0  0
   40.2141    1.0436   30.6650 C   0  0  0  0  0  0  0  0  0  0  0  0
   40.3134    0.6948   29.1818 C   0  0  0  0  0  0  0  0  0  0  0  0
   40.8178   -0.1110   31.5224 C   0  0  0  0  0  0  0  0  0  0  0  0
   41.0869    0.3409   32.9519 C   0  0  0  0  0  0  0  0  0  0  0  0
   40.2784   -0.1060   34.0129 C   0  0  0  0  0  0  0  0  0  0  0  0
   40.4452    0.4234   35.2956 C   0  0  0  0  0  0  0  0  0  0  0  0
   41.4408    1.3739   35.5361 C   0  0  0  0  0  0  0  0  0  0  0  0
   42.2485    1.8054   34.4970 C   0  0  0  0  0  0  0  0  0  0  0  0
   43.1689    2.7818   34.7525 O   0  0  0  0  0  0  0  0  0  0  0  0
   42.0770    1.2978   33.2192 C   0  0  0  0  0  0  0  0  0  0  0  0
   42.8729    1.7517   32.2404 F   0  0  0  0  0  0  0  0  0  0  0  0
   39.5890    0.1382   36.3771 N   0  0  0  0  0  0  0  0  0  0  0  0
   38.5538   -0.7846   36.4056 C   0  0  0  0  0  0  0  0  0  0  0  0
   38.3951   -1.7690   35.6929 O   0  0  0  0  0  0  0  0  0  0  0  0
   37.5918   -0.4649   37.4931 C   0  0  0  0  0  0  0  0  0  0  0  0
   37.2754   -1.5509   38.4533 C   0  0  0  0  0  0  0  0  0  0  0  0
   37.0816    0.7900   37.4619 C   0  0  0  0  0  0  0  0  0  0  0  0
   36.0877    1.4227   38.3830 C   0  0  0  0  0  0  0  0  0  0  0  0
   34.7028    1.6053   37.7290 C   0  0  0  0  0  0  0  0  0  0  0  0
   34.6757    2.6088   36.5368 C   0  0  0  0  0  0  0  0  0  0  0  0
   34.5121    4.0362   37.0704 C   0  0  0  0  0  0  0  0  0  0  0  0
   33.6930    2.1889   35.3894 C   0  0  0  0  0  0  0  0  0  0  0  0
   34.2932    2.6326   34.0426 C   0  0  0  0  0  0  0  0  0  0  0  0
   34.0680    4.0614   33.6494 C   0  0  0  0  0  0  0  0  0  0  0  0
   35.0382    1.7684   33.3101 C   0  0  0  0  0  0  0  0  0  0  0  0
   35.8332    1.9624   32.0079 C   0  0  0  0  0  0  0  0  0  0  0  0
   35.0332    2.6321   30.8786 C   0  0  0  0  0  0  0  0  0  0  0  0
   36.4364    0.5749   31.5733 C   0  0  0  0  0  0  0  0  0  0  0  0
   35.3719   -0.2711   31.0983 O   0  0  0  0  0  0  0  0  0  0  0  0
   43.2710    3.1131   35.6230 H   0  0  0  0  0  0  0  0  0  0  0  0
   39.7421    0.6504   37.2038 H   0  0  0  0  0  0  0  0  0  0  0  0
   34.9868    0.1138   30.2955 H   0  0  0  0  0  0  0  0  0  0  0  0
   37.6371    2.5229   29.1319 C   0  0  0  0  0  0  0  0  0  0  0  0
   37.3351    1.1299   29.2747 O   0  0  0  0  0  0  0  0  0  0  0  0
   32.3467    2.7047   35.4101 O   0  0  0  0  0  0  0  0  0  0  0  0
   31.3656    2.0136   36.0142 C   0  0  0  0  0  0  0  0  0  0  0  0
   30.9063    2.6864   37.1014 N   0  0  0  0  0  0  0  0  0  0  0  0
   30.8912    0.9426   35.6820 O   0  0  0  0  0  0  0  0  0  0  0  0
   31.3059    3.5510   37.3502 H   0  0  0  0  0  0  0  0  0  0  0  0
   30.1738    2.3093   37.6404 H   0  0  0  0  0  0  0  0  0  0  0  0
 35 36  1  0
  1 36  1  0
  1  2  1  0
  2  3  1  0
  3  4  1  0
  3  5  1  0
  5  6  1  0
  6  7  2  0
  7  8  1  0
  8  9  2  0
  9 10  1  0
 10 11  1  0
 10 12  2  0
 12 13  1  0
  8 14  1  0
 14 15  1  0
 15 16  2  0
 15 17  1  0
 17 18  1  0
 17 19  2  0
 19 20  1  0
 20 21  1  0
 21 22  1  0
 22 23  1  0
 22 24  1  0
 24 37  1  0
 37 38  1  0
 38 39  1  0
 38 40  2  0
 24 25  1  0
 25 26  1  0
 25 27  2  0
 27 28  1  0
 28 29  1  0
 28 30  1  0
 30 31  1  0
 30  1  1  0
 12  6  1  0
 11 32  1  0
 14 33  1  0
 39 41  1  0
 39 42  1  0
 31 34  1  0
M  END
> <minimizedAffinity>
-9.05078

> <CNNscore>
0.2567436993

> <CNNaffinity>
6.1526389122

> <CNN_VS>
1.5796512365

> <CNNaffinity_variance>
0.4353857934

$$$$



 42 43  0  0  0  0  0  0  0  0999 V2000
   45.7151   -5.4032   30.4862 C   0  0  0  0  0  0  0  0  0  0  0  0
   46.5228   -5.3926   31.8049 C   0  0  0  0  0  0  0  0  0  0  0  0
   47.6687   -6.4327   31.9155 C   0  0  0  0  0  0  0  0  0  0  0  0
   48.5165   -6.5449   30.6506 C   0  0  0  0  0  0  0  0  0  0  0  0
   47.1779   -7.8474   32.3516 C   0  0  0  0  0  0  0  0  0  0  0  0
   46.6619   -7.8390   33.7848 C   0  0  0  0  0  0  0  0  0  0  0  0
   45.2851   -7.9407   34.0553 C   0  0  0  0  0  0  0  0  0  0  0  0
   44.8120   -7.7903   35.3618 C   0  0  0  0  0  0  0  0  0  0  0  0
   45.7098   -7.5734   36.4103 C   0  0  0  0  0  0  0  0  0  0  0  0
   47.0674   -7.4874   36.1498 C   0  0  0  0  0  0  0  0  0  0  0  0
   47.9114   -7.2108   37.1876 O   0  0  0  0  0  0  0  0  0  0  0  0
   47.5418   -7.6179   34.8545 C   0  0  0  0  0  0  0  0  0  0  0  0
   48.8623   -7.5163   34.6456 F   0  0  0  0  0  0  0  0  0  0  0  0
   43.4451   -7.7355   35.6974 N   0  0  0  0  0  0  0  0  0  0  0  0
   42.3657   -7.9502   34.8531 C   0  0  0  0  0  0  0  0  0  0  0  0
   42.3405   -8.5709   33.7965 O   0  0  0  0  0  0  0  0  0  0  0  0
   41.1306   -7.3377   35.4097 C   0  0  0  0  0  0  0  0  0  0  0  0
   39.9437   -8.2180   35.5435 C   0  0  0  0  0  0  0  0  0  0  0  0
   41.2226   -6.0183   35.7038 C   0  0  0  0  0  0  0  0  0  0  0  0
   40.1748   -5.1033   36.2528 C   0  0  0  0  0  0  0  0  0  0  0  0
   39.6445   -4.1073   35.2012 C   0  0  0  0  0  0  0  0  0  0  0  0
   40.6976   -3.0752   34.6964 C   0  0  0  0  0  0  0  0  0  0  0  0
   40.7554   -1.8862   35.6619 C   0  0  0  0  0  0  0  0  0  0  0  0
   40.5437   -2.7181   33.1774 C   0  0  0  0  0  0  0  0  0  0  0  0
   41.9435   -2.4628   32.5892 C   0  0  0  0  0  0  0  0  0  0  0  0
   42.5194   -1.0957   32.8044 C   0  0  0  0  0  0  0  0  0  0  0  0
   42.6184   -3.4656   31.9748 C   0  0  0  0  0  0  0  0  0  0  0  0
   44.0435   -3.5289   31.3998 C   0  0  0  0  0  0  0  0  0  0  0  0
   44.3893   -2.3688   30.4520 C   0  0  0  0  0  0  0  0  0  0  0  0
   44.2538   -4.9359   30.7260 C   0  0  0  0  0  0  0  0  0  0  0  0
   43.4854   -4.9928   29.5092 O   0  0  0  0  0  0  0  0  0  0  0  0
   47.5726   -7.1260   38.0571 H   0  0  0  0  0  0  0  0  0  0  0  0
   43.2325   -7.5213   36.6344 H   0  0  0  0  0  0  0  0  0  0  0  0
   43.8307   -4.3423   28.8780 H   0  0  0  0  0  0  0  0  0  0  0  0
   47.2841   -3.5959   30.2101 C   0  0  0  0  0  0  0  0  0  0  0  0
   46.4827   -4.6007   29.5775 O   0  0  0  0  0  0  0  0  0  0  0  0
   39.7485   -1.5712   32.8149 O   0  0  0  0  0  0  0  0  0  0  0  0
   38.4215   -1.6934   32.6441 C   0  0  0  0  0  0  0  0  0  0  0  0
   38.1282   -1.9443   31.3416 N   0  0  0  0  0  0  0  0  0  0  0  0
   37.5487   -1.6213   33.4900 O   0  0  0  0  0  0  0  0  0  0  0  0
   38.8513   -1.9980   30.6757 H   0  0  0  0  0  0  0  0  0  0  0  0
   37.1925   -2.0724   31.0636 H   0  0  0  0  0  0  0  0  0  0  0  0
 35 36  1  0
  1 36  1  0
  1  2  1  0
  2  3  1  0
  3  4  1  0
  3  5  1  0
  5  6  1  0
  6  7  2  0
  7  8  1  0
  8  9  2  0
  9 10  1  0
 10 11  1  0
 10 12  2  0
 12 13  1  0
  8 14  1  0
 14 15  1  0
 15 16  2  0
 15 17  1  0
 17 18  1  0
 17 19  2  0
 19 20  1  0
 20 21  1  0
 21 22  1  0
 22 23  1  0
 22 24  1  0
 24 37  1  0
 37 38  1  0
 38 39  1  0
 38 40  2  0
 24 25  1  0
 25 26  1  0
 25 27  2  0
 27 28  1  0
 28 29  1  0
 28 30  1  0
 30 31  1  0
 30  1  1  0
 12  6  1  0
 11 32  1  0
 14 33  1  0
 39 41  1  0
 39 42  1  0
 31 34  1  0
M  END
> <minimizedAffinity>
-6.86780

> <CNNscore>
0.2428725064

> <CNNaffinity>
4.8078398705

> <CNN_VS>
1.1676920652

> <CNNaffinity_variance>
1.4875454903

$$$$



 42 43  0  0  0  0  0  0  0  0999 V2000
   45.6950   -3.4870   32.2419 C   0  0  0  0  0  0  0  0  0  0  0  0
   44.7258   -3.2086   31.0696 C   0  0  0  0  0  0  0  0  0  0  0  0
   45.3070   -2.4075   29.8748 C   0  0  0  0  0  0  0  0  0  0  0  0
   46.7015   -2.8645   29.4530 C   0  0  0  0  0  0  0  0  0  0  0  0
   45.3022   -0.8650   30.1054 C   0  0  0  0  0  0  0  0  0  0  0  0
   43.8825   -0.3149   30.1531 C   0  0  0  0  0  0  0  0  0  0  0  0
   43.3149    0.1094   31.3684 C   0  0  0  0  0  0  0  0  0  0  0  0
   41.9682    0.4788   31.4246 C   0  0  0  0  0  0  0  0  0  0  0  0
   41.1890    0.4616   30.2649 C   0  0  0  0  0  0  0  0  0  0  0  0
   41.7483    0.0585   29.0635 C   0  0  0  0  0  0  0  0  0  0  0  0
   40.9429   -0.0082   27.9624 O   0  0  0  0  0  0  0  0  0  0  0  0
   43.0782   -0.3259   29.0041 C   0  0  0  0  0  0  0  0  0  0  0  0
   43.5760   -0.7202   27.8232 F   0  0  0  0  0  0  0  0  0  0  0  0
   41.2881    0.7772   32.6215 N   0  0  0  0  0  0  0  0  0  0  0  0
   41.8360    0.8908   33.8907 C   0  0  0  0  0  0  0  0  0  0  0  0
   42.9991    1.1273   34.1967 O   0  0  0  0  0  0  0  0  0  0  0  0
   40.7906    0.7202   34.9339 C   0  0  0  0  0  0  0  0  0  0  0  0
   40.6781    1.7899   35.9560 C   0  0  0  0  0  0  0  0  0  0  0  0
   40.0725   -0.4257   34.8494 C   0  0  0  0  0  0  0  0  0  0  0  0
   38.9731   -0.9127   35.7387 C   0  0  0  0  0  0  0  0  0  0  0  0
   39.4110   -2.0876   36.6369 C   0  0  0  0  0  0  0  0  0  0  0  0
   39.7645   -3.3958   35.8670 C   0  0  0  0  0  0  0  0  0  0  0  0
   38.4849   -4.1956   35.5985 C   0  0  0  0  0  0  0  0  0  0  0  0
   40.9514   -4.1959   36.5070 C   0  0  0  0  0  0  0  0  0  0  0  0
   41.7532   -4.8705   35.3789 C   0  0  0  0  0  0  0  0  0  0  0  0
   41.2158   -6.1713   34.8632 C   0  0  0  0  0  0  0  0  0  0  0  0
   42.8446   -4.2579   34.8572 C   0  0  0  0  0  0  0  0  0  0  0  0
   43.7569   -4.6367   33.6785 C   0  0  0  0  0  0  0  0  0  0  0  0
   44.2733   -6.0840   33.7252 C   0  0  0  0  0  0  0  0  0  0  0  0
   44.9258   -3.5863   33.5871 C   0  0  0  0  0  0  0  0  0  0  0  0
   45.8312   -3.7953   34.6875 O   0  0  0  0  0  0  0  0  0  0  0  0
   40.0458    0.2560   28.0213 H   0  0  0  0  0  0  0  0  0  0  0  0
   40.3169    0.9211   32.5492 H   0  0  0  0  0  0  0  0  0  0  0  0
   46.2498   -4.6660   34.6009 H   0  0  0  0  0  0  0  0  0  0  0  0
   45.7041   -5.5237   30.9551 C   0  0  0  0  0  0  0  0  0  0  0  0
   46.4177   -4.6635   31.8512 O   0  0  0  0  0  0  0  0  0  0  0  0
   40.6489   -5.2399   37.4545 O   0  0  0  0  0  0  0  0  0  0  0  0
   40.5048   -4.9504   38.7586 C   0  0  0  0  0  0  0  0  0  0  0  0
   41.5324   -5.4692   39.4799 N   0  0  0  0  0  0  0  0  0  0  0  0
   39.6182   -4.3054   39.2880 O   0  0  0  0  0  0  0  0  0  0  0  0
   42.2378   -5.9875   39.0293 H   0  0  0  0  0  0  0  0  0  0  0  0
   41.5717   -5.3269   40.4533 H   0  0  0  0  0  0  0  0  0  0  0  0
 35 36  1  0
  1 36  1  0
  1  2  1  0
  2  3  1  0
  3  4  1  0
  3  5  1  0
  5  6  1  0
  6  7  2  0
  7  8  1  0
  8  9  2  0
  9 10  1  0
 10 11  1  0
 10 12  2  0
 12 13  1  0
  8 14  1  0
 14 15  1  0
 15 16  2  0
 15 17  1  0
 17 18  1  0
 17 19  2  0
 19 20  1  0
 20 21  1  0
 21 22  1  0
 22 23  1  0
 22 24  1  0
 24 37  1  0
 37 38  1  0
 38 39  1  0
 38 40  2  0
 24 25  1  0
 25 26  1  0
 25 27  2  0
 27 28  1  0
 28 29  1  0
 28 30  1  0
 30 31  1  0
 30  1  1  0
 12  6  1  0
 11 32  1  0
 14 33  1  0
 39 41  1  0
 39 42  1  0
 31 34  1  0
M  END
> <minimizedAffinity>
-7.11542

> <CNNscore>
0.2024925351

> <CNNaffinity>
5.0971846581

> <CNN_VS>
1.0321418047

> <CNNaffinity_variance>
1.1721758842

$$$$



 42 43  0  0  0  0  0  0  0  0999 V2000
   44.2009   -3.0353   31.8975 C   0  0  0  0  0  0  0  0  0  0  0  0
   42.7722   -3.1175   31.3115 C   0  0  0  0  0  0  0  0  0  0  0  0
   42.3008   -1.8954   30.4800 C   0  0  0  0  0  0  0  0  0  0  0  0
   43.3575   -1.3717   29.5102 C   0  0  0  0  0  0  0  0  0  0  0  0
   41.7593   -0.7245   31.3565 C   0  0  0  0  0  0  0  0  0  0  0  0
   40.4627   -1.1089   32.0575 C   0  0  0  0  0  0  0  0  0  0  0  0
   40.4384   -1.3561   33.4422 C   0  0  0  0  0  0  0  0  0  0  0  0
   39.2779   -1.8440   34.0492 C   0  0  0  0  0  0  0  0  0  0  0  0
   38.1255   -2.0546   33.2876 C   0  0  0  0  0  0  0  0  0  0  0  0
   38.1413   -1.7984   31.9265 C   0  0  0  0  0  0  0  0  0  0  0  0
   37.0180   -2.0758   31.2006 O   0  0  0  0  0  0  0  0  0  0  0  0
   39.2936   -1.3313   31.3151 C   0  0  0  0  0  0  0  0  0  0  0  0
   39.2685   -1.1076   29.9934 F   0  0  0  0  0  0  0  0  0  0  0  0
   39.2114   -2.2512   35.3960 N   0  0  0  0  0  0  0  0  0  0  0  0
   40.1991   -2.1195   36.3610 C   0  0  0  0  0  0  0  0  0  0  0  0
   41.1394   -1.3335   36.3821 O   0  0  0  0  0  0  0  0  0  0  0  0
   39.9756   -3.0743   37.4784 C   0  0  0  0  0  0  0  0  0  0  0  0
   39.9346   -2.5088   38.8496 C   0  0  0  0  0  0  0  0  0  0  0  0
   39.8669   -4.3747   37.1135 C   0  0  0  0  0  0  0  0  0  0  0  0
   39.6607   -5.5783   37.9769 C   0  0  0  0  0  0  0  0  0  0  0  0
   40.9267   -6.4517   38.0920 C   0  0  0  0  0  0  0  0  0  0  0  0
   41.3752   -7.1226   36.7587 C   0  0  0  0  0  0  0  0  0  0  0  0
   40.6011   -8.4298   36.5555 C   0  0  0  0  0  0  0  0  0  0  0  0
   42.9323   -7.2161   36.5994 C   0  0  0  0  0  0  0  0  0  0  0  0
   43.2838   -7.0523   35.1093 C   0  0  0  0  0  0  0  0  0  0  0  0
   43.1696   -8.2803   34.2572 C   0  0  0  0  0  0  0  0  0  0  0  0
   43.6092   -5.8322   34.6154 C   0  0  0  0  0  0  0  0  0  0  0  0
   43.8964   -5.3600   33.1802 C   0  0  0  0  0  0  0  0  0  0  0  0
   44.9244   -6.2227   32.4300 C   0  0  0  0  0  0  0  0  0  0  0  0
   44.3055   -3.8405   33.2211 C   0  0  0  0  0  0  0  0  0  0  0  0
   45.6212   -3.7245   33.7956 O   0  0  0  0  0  0  0  0  0  0  0  0
   36.2478   -2.3909   31.6312 H   0  0  0  0  0  0  0  0  0  0  0  0
   38.3714   -2.6761   35.6842 H   0  0  0  0  0  0  0  0  0  0  0  0
   46.2667   -4.1574   33.2152 H   0  0  0  0  0  0  0  0  0  0  0  0
   46.2186   -2.6519   30.6381 C   0  0  0  0  0  0  0  0  0  0  0  0
   45.0607   -3.4721   30.8350 O   0  0  0  0  0  0  0  0  0  0  0  0
   43.5996   -8.4189   37.0320 O   0  0  0  0  0  0  0  0  0  0  0  0
   44.1951   -8.4679   38.2355 C   0  0  0  0  0  0  0  0  0  0  0  0
   43.3082   -8.8452   39.1928 N   0  0  0  0  0  0  0  0  0  0  0  0
   45.3607   -8.2394   38.5030 O   0  0  0  0  0  0  0  0  0  0  0  0
   42.3706   -9.0245   38.9520 H   0  0  0  0  0  0  0  0  0  0  0  0
   43.6030   -8.9394   40.1274 H   0  0  0  0  0  0  0  0  0  0  0  0
 35 36  1  0
  1 36  1  0
  1  2  1  0
  2  3  1  0
  3  4  1  0
  3  5  1  0
  5  6  1  0
  6  7  2  0
  7  8  1  0
  8  9  2  0
  9 10  1  0
 10 11  1  0
 10 12  2  0
 12 13  1  0
  8 14  1  0
 14 15  1  0
 15 16  2  0
 15 17  1  0
 17 18  1  0
 17 19  2  0
 19 20  1  0
 20 21  1  0
 21 22  1  0
 22 23  1  0
 22 24  1  0
 24 37  1  0
 37 38  1  0
 38 39  1  0
 38 40  2  0
 24 25  1  0
 25 26  1  0
 25 27  2  0
 27 28  1  0
 28 29  1  0
 28 30  1  0
 30 31  1  0
 30  1  1  0
 12  6  1  0
 11 32  1  0
 14 33  1  0
 39 41  1  0
 39 42  1  0
 31 34  1  0
M  END
> <minimizedAffinity>
-6.74631

> <CNNscore>
0.1947494745

> <CNNaffinity>
4.8769822121

> <CNN_VS>
0.9497897029

> <CNNaffinity_variance>
0.9881744385

$$$$



 42 43  0  0  0  0  0  0  0  0999 V2000
   44.6855   -3.7761   33.5014 C   0  0  0  0  0  0  0  0  0  0  0  0
   43.1492   -3.6063   33.4530 C   0  0  0  0  0  0  0  0  0  0  0  0
   42.5860   -2.2880   34.0464 C   0  0  0  0  0  0  0  0  0  0  0  0
   43.3769   -1.0472   33.6385 C   0  0  0  0  0  0  0  0  0  0  0  0
   42.4261   -2.3283   35.5973 C   0  0  0  0  0  0  0  0  0  0  0  0
   41.3447   -3.3149   36.0188 C   0  0  0  0  0  0  0  0  0  0  0  0
   41.6827   -4.5378   36.6264 C   0  0  0  0  0  0  0  0  0  0  0  0
   40.6953   -5.4940   36.8796 C   0  0  0  0  0  0  0  0  0  0  0  0
   39.3617   -5.2235   36.5620 C   0  0  0  0  0  0  0  0  0  0  0  0
   39.0230   -4.0145   35.9771 C   0  0  0  0  0  0  0  0  0  0  0  0
   37.7207   -3.8079   35.6207 O   0  0  0  0  0  0  0  0  0  0  0  0
   39.9994   -3.0692   35.7071 C   0  0  0  0  0  0  0  0  0  0  0  0
   39.6295   -1.9171   35.1296 F   0  0  0  0  0  0  0  0  0  0  0  0
   40.9669   -6.7933   37.3508 N   0  0  0  0  0  0  0  0  0  0  0  0
   42.1920   -7.2958   37.7641 C   0  0  0  0  0  0  0  0  0  0  0  0
   43.1726   -6.6751   38.1584 O   0  0  0  0  0  0  0  0  0  0  0  0
   42.1966   -8.7816   37.7147 C   0  0  0  0  0  0  0  0  0  0  0  0
   42.5938   -9.4955   38.9534 C   0  0  0  0  0  0  0  0  0  0  0  0
   41.8649   -9.3204   36.5165 C   0  0  0  0  0  0  0  0  0  0  0  0
   41.7913  -10.7612   36.1228 C   0  0  0  0  0  0  0  0  0  0  0  0
   42.9484  -11.1841   35.1947 C   0  0  0  0  0  0  0  0  0  0  0  0
   42.9409  -10.4986   33.7951 C   0  0  0  0  0  0  0  0  0  0  0  0
   42.0178  -11.2736   32.8483 C   0  0  0  0  0  0  0  0  0  0  0  0
   44.3755  -10.1820   33.2470 C   0  0  0  0  0  0  0  0  0  0  0  0
   44.3127   -8.8764   32.4332 C   0  0  0  0  0  0  0  0  0  0  0  0
   43.8474   -8.9961   31.0133 C   0  0  0  0  0  0  0  0  0  0  0  0
   44.6047   -7.6907   33.0225 C   0  0  0  0  0  0  0  0  0  0  0  0
   44.5257   -6.2474   32.4969 C   0  0  0  0  0  0  0  0  0  0  0  0
   45.2156   -6.0358   31.1394 C   0  0  0  0  0  0  0  0  0  0  0  0
   45.0756   -5.2755   33.6064 C   0  0  0  0  0  0  0  0  0  0  0  0
   46.5039   -5.4338   33.7025 O   0  0  0  0  0  0  0  0  0  0  0  0
   37.0740   -4.4585   35.8114 H   0  0  0  0  0  0  0  0  0  0  0  0
   40.2031   -7.4131   37.3913 H   0  0  0  0  0  0  0  0  0  0  0  0
   46.9173   -5.1495   32.8723 H   0  0  0  0  0  0  0  0  0  0  0  0
   44.2357   -3.0359   31.2533 C   0  0  0  0  0  0  0  0  0  0  0  0
   45.1692   -3.0883   32.3387 O   0  0  0  0  0  0  0  0  0  0  0  0
   45.0168  -11.1494   32.3915 O   0  0  0  0  0  0  0  0  0  0  0  0
   46.0943  -11.8263   32.8227 C   0  0  0  0  0  0  0  0  0  0  0  0
   45.7281  -12.8060   33.6896 N   0  0  0  0  0  0  0  0  0  0  0  0
   47.2589  -11.6557   32.5110 O   0  0  0  0  0  0  0  0  0  0  0  0
   44.7800  -12.9246   33.9265 H   0  0  0  0  0  0  0  0  0  0  0  0
   46.4110  -13.3975   34.0809 H   0  0  0  0  0  0  0  0  0  0  0  0
 35 36  1  0
  1 36  1  0
  1  2  1  0
  2  3  1  0
  3  4  1  0
  3  5  1  0
  5  6  1  0
  6  7  2  0
  7  8  1  0
  8  9  2  0
  9 10  1  0
 10 11  1  0
 10 12  2  0
 12 13  1  0
  8 14  1  0
 14 15  1  0
 15 16  2  0
 15 17  1  0
 17 18  1  0
 17 19  2  0
 19 20  1  0
 20 21  1  0
 21 22  1  0
 22 23  1  0
 22 24  1  0
 24 37  1  0
 37 38  1  0
 38 39  1  0
 38 40  2  0
 24 25  1  0
 25 26  1  0
 25 27  2  0
 27 28  1  0
 28 29  1  0
 28 30  1  0
 30 31  1  0
 30  1  1  0
 12  6  1  0
 11 32  1  0
 14 33  1  0
 39 41  1  0
 39 42  1  0
 31 34  1  0
M  END
> <minimizedAffinity>
-8.00681

> <CNNscore>
0.1934357285

> <CNNaffinity>
4.9747424126

> <CNN_VS>
0.9622929096

> <CNNaffinity_variance>
1.2317067385

$$$$



 42 43  0  0  0  0  0  0  0  0999 V2000
   40.4837   -3.0393   35.4910 C   0  0  0  0  0  0  0  0  0  0  0  0
   40.9025   -4.0958   34.4423 C   0  0  0  0  0  0  0  0  0  0  0  0
   42.2030   -4.8854   34.7459 C   0  0  0  0  0  0  0  0  0  0  0  0
   42.3112   -5.3505   36.1962 C   0  0  0  0  0  0  0  0  0  0  0  0
   43.4991   -4.1205   34.3367 C   0  0  0  0  0  0  0  0  0  0  0  0
   43.6027   -3.9725   32.8242 C   0  0  0  0  0  0  0  0  0  0  0  0
   43.3952   -2.7256   32.2066 C   0  0  0  0  0  0  0  0  0  0  0  0
   43.3529   -2.6294   30.8130 C   0  0  0  0  0  0  0  0  0  0  0  0
   43.5523   -3.7672   30.0267 C   0  0  0  0  0  0  0  0  0  0  0  0
   43.7716   -4.9940   30.6312 C   0  0  0  0  0  0  0  0  0  0  0  0
   43.8987   -6.0966   29.8350 O   0  0  0  0  0  0  0  0  0  0  0  0
   43.7971   -5.0997   32.0125 C   0  0  0  0  0  0  0  0  0  0  0  0
   44.0008   -6.3083   32.5561 F   0  0  0  0  0  0  0  0  0  0  0  0
   43.0100   -1.4520   30.1201 N   0  0  0  0  0  0  0  0  0  0  0  0
   42.7968   -0.1929   30.6616 C   0  0  0  0  0  0  0  0  0  0  0  0
   43.2024    0.2526   31.7291 O   0  0  0  0  0  0  0  0  0  0  0  0
   41.9938    0.6501   29.7370 C   0  0  0  0  0  0  0  0  0  0  0  0
   42.5528    1.9769   29.3783 C   0  0  0  0  0  0  0  0  0  0  0  0
   40.8106    0.1156   29.3491 C   0  0  0  0  0  0  0  0  0  0  0  0
   39.7660    0.6988   28.4518 C   0  0  0  0  0  0  0  0  0  0  0  0
   38.5047    1.1452   29.2192 C   0  0  0  0  0  0  0  0  0  0  0  0
   37.7042   -0.0160   29.8826 C   0  0  0  0  0  0  0  0  0  0  0  0
   36.7504   -0.6351   28.8550 C   0  0  0  0  0  0  0  0  0  0  0  0
   37.0677    0.3726   31.2619 C   0  0  0  0  0  0  0  0  0  0  0  0
   37.0810   -0.8671   32.1750 C   0  0  0  0  0  0  0  0  0  0  0  0
   35.9622   -1.8469   31.9874 C   0  0  0  0  0  0  0  0  0  0  0  0
   38.1034   -1.0633   33.0438 C   0  0  0  0  0  0  0  0  0  0  0  0
   38.4287   -2.2374   33.9825 C   0  0  0  0  0  0  0  0  0  0  0  0
   37.2515   -2.6766   34.8686 C   0  0  0  0  0  0  0  0  0  0  0  0
   39.7078   -1.8714   34.8239 C   0  0  0  0  0  0  0  0  0  0  0  0
   39.3604   -0.8614   35.7901 O   0  0  0  0  0  0  0  0  0  0  0  0
   43.8791   -6.0059   28.9026 H   0  0  0  0  0  0  0  0  0  0  0  0
   42.9106   -1.5314   29.1438 H   0  0  0  0  0  0  0  0  0  0  0  0
   38.7219   -1.2254   36.4230 H   0  0  0  0  0  0  0  0  0  0  0  0
   39.1369   -4.9705   36.0020 C   0  0  0  0  0  0  0  0  0  0  0  0
   39.7609   -3.7760   36.4879 O   0  0  0  0  0  0  0  0  0  0  0  0
   35.7120    0.8632   31.2830 O   0  0  0  0  0  0  0  0  0  0  0  0
   35.4620    2.1713   31.1052 C   0  0  0  0  0  0  0  0  0  0  0  0
   36.4158    2.9268   31.7094 N   0  0  0  0  0  0  0  0  0  0  0  0
   34.5442    2.6803   30.4879 O   0  0  0  0  0  0  0  0  0  0  0  0
   37.1484    2.4923   32.2030 H   0  0  0  0  0  0  0  0  0  0  0  0
   36.3744    3.9089   31.6536 H   0  0  0  0  0  0  0  0  0  0  0  0
 35 36  1  0
  1 36  1  0
  1  2  1  0
  2  3  1  0
  3  4  1  0
  3  5  1  0
  5  6  1  0
  6  7  2  0
  7  8  1  0
  8  9  2  0
  9 10  1  0
 10 11  1  0
 10 12  2  0
 12 13  1  0
  8 14  1  0
 14 15  1  0
 15 16  2  0
 15 17  1  0
 17 18  1  0
 17 19  2  0
 19 20  1  0
 20 21  1  0
 21 22  1  0
 22 23  1  0
 22 24  1  0
 24 37  1  0
 37 38  1  0
 38 39  1  0
 38 40  2  0
 24 25  1  0
 25 26  1  0
 25 27  2  0
 27 28  1  0
 28 29  1  0
 28 30  1  0
 30 31  1  0
 30  1  1  0
 12  6  1  0
 11 32  1  0
 14 33  1  0
 39 41  1  0
 39 42  1  0
 31 34  1  0
M  END
> <minimizedAffinity>
-7.18699

> <CNNscore>
0.1913924366

> <CNNaffinity>
4.6507353783

> <CNN_VS>
0.8901155591

> <CNNaffinity_variance>
1.0835067034

$$$$



 42 43  0  0  0  0  0  0  0  0999 V2000
   42.2986   -2.6360   31.3085 C   0  0  0  0  0  0  0  0  0  0  0  0
   42.9617   -1.4855   32.1008 C   0  0  0  0  0  0  0  0  0  0  0  0
   43.6942   -1.8865   33.4084 C   0  0  0  0  0  0  0  0  0  0  0  0
   44.5538   -3.1405   33.2675 C   0  0  0  0  0  0  0  0  0  0  0  0
   42.7373   -2.0346   34.6311 C   0  0  0  0  0  0  0  0  0  0  0  0
   42.1437   -0.6920   35.0377 C   0  0  0  0  0  0  0  0  0  0  0  0
   40.7924   -0.3951   34.7830 C   0  0  0  0  0  0  0  0  0  0  0  0
   40.2951    0.8873   35.0311 C   0  0  0  0  0  0  0  0  0  0  0  0
   41.1311    1.8702   35.5670 C   0  0  0  0  0  0  0  0  0  0  0  0
   42.4585    1.5774   35.8329 C   0  0  0  0  0  0  0  0  0  0  0  0
   43.2641    2.5785   36.2961 O   0  0  0  0  0  0  0  0  0  0  0  0
   42.9625    0.3132   35.5729 C   0  0  0  0  0  0  0  0  0  0  0  0
   44.2561    0.0760   35.8343 F   0  0  0  0  0  0  0  0  0  0  0  0
   38.9991    1.3067   34.6726 N   0  0  0  0  0  0  0  0  0  0  0  0
   37.9769    0.5228   34.1581 C   0  0  0  0  0  0  0  0  0  0  0  0
   37.8322   -0.6909   34.2493 O   0  0  0  0  0  0  0  0  0  0  0  0
   36.9697    1.3623   33.4574 C   0  0  0  0  0  0  0  0  0  0  0  0
   35.5542    1.2040   33.8731 C   0  0  0  0  0  0  0  0  0  0  0  0
   37.4637    2.1630   32.4821 C   0  0  0  0  0  0  0  0  0  0  0  0
   36.7322    3.1068   31.5818 C   0  0  0  0  0  0  0  0  0  0  0  0
   36.6377    2.5919   30.1309 C   0  0  0  0  0  0  0  0  0  0  0  0
   38.0051    2.4835   29.3909 C   0  0  0  0  0  0  0  0  0  0  0  0
   38.3727    3.8442   28.7888 C   0  0  0  0  0  0  0  0  0  0  0  0
   38.0932    1.2570   28.4180 C   0  0  0  0  0  0  0  0  0  0  0  0
   39.5407    0.7321   28.4201 C   0  0  0  0  0  0  0  0  0  0  0  0
   40.5121    1.4480   27.5308 C   0  0  0  0  0  0  0  0  0  0  0  0
   39.8972   -0.2821   29.2465 C   0  0  0  0  0  0  0  0  0  0  0  0
   41.2636   -0.9268   29.5339 C   0  0  0  0  0  0  0  0  0  0  0  0
   42.0403   -1.3388   28.2726 C   0  0  0  0  0  0  0  0  0  0  0  0
   41.0553   -2.1290   30.5285 C   0  0  0  0  0  0  0  0  0  0  0  0
   40.4062   -3.2084   29.8300 O   0  0  0  0  0  0  0  0  0  0  0  0
   42.9057    3.4273   36.4664 H   0  0  0  0  0  0  0  0  0  0  0  0
   38.7965    2.2615   34.8014 H   0  0  0  0  0  0  0  0  0  0  0  0
   40.9920   -3.5403   29.1318 H   0  0  0  0  0  0  0  0  0  0  0  0
   43.2319   -4.5922   30.2566 C   0  0  0  0  0  0  0  0  0  0  0  0
   43.3531   -3.1868   30.5063 O   0  0  0  0  0  0  0  0  0  0  0  0
   37.7454    1.4488   27.0319 O   0  0  0  0  0  0  0  0  0  0  0  0
   37.1835    0.4505   26.3299 C   0  0  0  0  0  0  0  0  0  0  0  0
   35.9614    0.1397   26.8350 N   0  0  0  0  0  0  0  0  0  0  0  0
   37.6358   -0.1276   25.3584 O   0  0  0  0  0  0  0  0  0  0  0  0
   35.6169    0.6212   27.6216 H   0  0  0  0  0  0  0  0  0  0  0  0
   35.4202   -0.5671   26.4146 H   0  0  0  0  0  0  0  0  0  0  0  0
 35 36  1  0
  1 36  1  0
  1  2  1  0
  2  3  1  0
  3  4  1  0
  3  5  1  0
  5  6  1  0
  6  7  2  0
  7  8  1  0
  8  9  2  0
  9 10  1  0
 10 11  1  0
 10 12  2  0
 12 13  1  0
  8 14  1  0
 14 15  1  0
 15 16  2  0
 15 17  1  0
 17 18  1  0
 17 19  2  0
 19 20  1  0
 20 21  1  0
 21 22  1  0
 22 23  1  0
 22 24  1  0
 24 37  1  0
 37 38  1  0
 38 39  1  0
 38 40  2  0
 24 25  1  0
 25 26  1  0
 25 27  2  0
 27 28  1  0
 28 29  1  0
 28 30  1  0
 30 31  1  0
 30  1  1  0
 12  6  1  0
 11 32  1  0
 14 33  1  0
 39 41  1  0
 39 42  1  0
 31 34  1  0
M  END
> <minimizedAffinity>
-8.76107

> <CNNscore>
0.1858278811

> <CNNaffinity>
5.1267628670

> <CNN_VS>
0.9526954889

> <CNNaffinity_variance>
1.2604150772

$$$$



 42 43  0  0  0  0  0  0  0  0999 V2000
   37.5920   -1.9067   28.0900 C   0  0  0  0  0  0  0  0  0  0  0  0
   38.6451   -1.0730   27.3236 C   0  0  0  0  0  0  0  0  0  0  0  0
   39.0222   -1.5801   25.9067 C   0  0  0  0  0  0  0  0  0  0  0  0
   37.8188   -2.0092   25.0706 C   0  0  0  0  0  0  0  0  0  0  0  0
   40.0893   -2.7174   25.9221 C   0  0  0  0  0  0  0  0  0  0  0  0
   41.4388   -2.2065   26.4100 C   0  0  0  0  0  0  0  0  0  0  0  0
   41.9247   -2.5576   27.6827 C   0  0  0  0  0  0  0  0  0  0  0  0
   43.0941   -1.9719   28.1754 C   0  0  0  0  0  0  0  0  0  0  0  0
   43.8047   -1.0606   27.3898 C   0  0  0  0  0  0  0  0  0  0  0  0
   43.3373   -0.7235   26.1303 C   0  0  0  0  0  0  0  0  0  0  0  0
   44.0206    0.2181   25.4147 O   0  0  0  0  0  0  0  0  0  0  0  0
   42.1692   -1.2871   25.6427 C   0  0  0  0  0  0  0  0  0  0  0  0
   41.7464   -0.9240   24.4233 F   0  0  0  0  0  0  0  0  0  0  0  0
   43.5695   -2.1584   29.4881 N   0  0  0  0  0  0  0  0  0  0  0  0
   43.0665   -3.0263   30.4461 C   0  0  0  0  0  0  0  0  0  0  0  0
   42.3943   -4.0371   30.2761 O   0  0  0  0  0  0  0  0  0  0  0  0
   43.4806   -2.6040   31.8101 C   0  0  0  0  0  0  0  0  0  0  0  0
   44.1507   -3.6222   32.6561 C   0  0  0  0  0  0  0  0  0  0  0  0
   43.1636   -1.3287   32.1405 C   0  0  0  0  0  0  0  0  0  0  0  0
   43.4139   -0.6011   33.4229 C   0  0  0  0  0  0  0  0  0  0  0  0
   42.1268   -0.3843   34.2447 C   0  0  0  0  0  0  0  0  0  0  0  0
   41.0804    0.5567   33.5749 C   0  0  0  0  0  0  0  0  0  0  0  0
   41.4228    2.0161   33.8944 C   0  0  0  0  0  0  0  0  0  0  0  0
   39.5955    0.1274   33.8384 C   0  0  0  0  0  0  0  0  0  0  0  0
   38.7571    0.4711   32.5935 C   0  0  0  0  0  0  0  0  0  0  0  0
   38.2787    1.8872   32.4805 C   0  0  0  0  0  0  0  0  0  0  0  0
   38.5407   -0.4654   31.6371 C   0  0  0  0  0  0  0  0  0  0  0  0
   37.8470   -0.3782   30.2673 C   0  0  0  0  0  0  0  0  0  0  0  0
   36.4541    0.2712   30.3100 C   0  0  0  0  0  0  0  0  0  0  0  0
   37.8189   -1.8143   29.6234 C   0  0  0  0  0  0  0  0  0  0  0  0
   36.8707   -2.6300   30.3376 O   0  0  0  0  0  0  0  0  0  0  0  0
   44.8089    0.5883   25.7604 H   0  0  0  0  0  0  0  0  0  0  0  0
   44.3441   -1.6126   29.7551 H   0  0  0  0  0  0  0  0  0  0  0  0
   35.9786   -2.2684   30.2182 H   0  0  0  0  0  0  0  0  0  0  0  0
   36.3419   -0.0614   27.1752 C   0  0  0  0  0  0  0  0  0  0  0  0
   36.3256   -1.4233   27.6192 O   0  0  0  0  0  0  0  0  0  0  0  0
   38.8967    0.7095   34.9573 O   0  0  0  0  0  0  0  0  0  0  0  0
   38.2742   -0.0773   35.8510 C   0  0  0  0  0  0  0  0  0  0  0  0
   39.0733   -0.3056   36.9256 N   0  0  0  0  0  0  0  0  0  0  0  0
   37.1502   -0.5407   35.7845 O   0  0  0  0  0  0  0  0  0  0  0  0
   39.9787    0.0800   36.9565 H   0  0  0  0  0  0  0  0  0  0  0  0
   38.7472   -0.8566   37.6734 H   0  0  0  0  0  0  0  0  0  0  0  0
 35 36  1  0
  1 36  1  0
  1  2  1  0
  2  3  1  0
  3  4  1  0
  3  5  1  0
  5  6  1  0
  6  7  2  0
  7  8  1  0
  8  9  2  0
  9 10  1  0
 10 11  1  0
 10 12  2  0
 12 13  1  0
  8 14  1  0
 14 15  1  0
 15 16  2  0
 15 17  1  0
 17 18  1  0
 17 19  2  0
 19 20  1  0
 20 21  1  0
 21 22  1  0
 22 23  1  0
 22 24  1  0
 24 37  1  0
 37 38  1  0
 38 39  1  0
 38 40  2  0
 24 25  1  0
 25 26  1  0
 25 27  2  0
 27 28  1  0
 28 29  1  0
 28 30  1  0
 30 31  1  0
 30  1  1  0
 12  6  1  0
 11 32  1  0
 14 33  1  0
 39 41  1  0
 39 42  1  0
 31 34  1  0
M  END
> <minimizedAffinity>
-7.87988

> <CNNscore>
0.1806708425

> <CNNaffinity>
4.8267493248

> <CNN_VS>
0.8720528483

> <CNNaffinity_variance>
1.3428608179

$$$$
