


 28 30  0  0  0  0  0  0  0  0999 V2000
   15.6125   16.3764   15.0118 C   0  0  0  0  0  0  0  0  0  0  0  0
   16.6957   16.9864   15.4196 N   0  0  0  0  0  0  0  0  0  0  0  0
   16.7331   16.8287   16.7915 C   0  0  0  0  0  0  0  0  0  0  0  0
   17.6496   17.2850   17.7553 C   0  0  0  0  0  0  0  0  0  0  0  0
   18.9585   18.1731   17.0988 Cl  0  0  0  0  0  0  0  0  0  0  0  0
   17.4271   17.0008   19.1089 C   0  0  0  0  0  0  0  0  0  0  0  0
   18.3285   17.4657   20.1869 C   0  0  0  0  0  0  0  0  0  0  0  0
   19.3223   18.1573   20.0080 O   0  0  0  0  0  0  0  0  0  0  0  0
   17.9896   17.0837   21.4605 N   0  0  0  0  0  0  0  0  0  0  0  0
   16.8738   16.3771   21.7680 C   0  0  0  0  0  0  0  0  0  0  0  0
   16.6613   16.1109   23.0785 N   0  0  0  0  0  0  0  0  0  0  0  0
   16.0474   15.9626   20.8684 N   0  0  0  0  0  0  0  0  0  0  0  0
   16.3048   16.2497   19.5118 C   0  0  0  0  0  0  0  0  0  0  0  0
   15.3811   15.7540   18.5578 C   0  0  0  0  0  0  0  0  0  0  0  0
   15.6368   16.0881   17.2178 C   0  0  0  0  0  0  0  0  0  0  0  0
   14.9321   15.8322   16.0646 N   0  0  0  0  0  0  0  0  0  0  0  0
   18.5931   17.3381   22.1956 H   0  0  0  0  0  0  0  0  0  0  0  0
   17.2991   16.4326   23.7559 H   0  0  0  0  0  0  0  0  0  0  0  0
   15.8689   15.5956   23.3539 H   0  0  0  0  0  0  0  0  0  0  0  0
   14.0813   15.3402   16.0074 H   0  0  0  0  0  0  0  0  0  0  0  0
   16.0848   16.3602   12.6276 C   0  0  0  0  0  0  0  0  0  0  0  0
   15.1619   16.3127   13.7428 N   0  0  0  0  0  0  0  0  0  0  0  0
   14.1956   16.2332   13.5724 H   0  0  0  0  0  0  0  0  0  0  0  0
   14.1772   14.9363   18.9692 C   0  0  0  0  0  0  0  0  0  0  0  0
   13.0041   15.0422   17.9883 C   0  0  0  0  0  0  0  0  0  0  0  0
   11.7518   15.4200   18.6555 N   0  0  0  0  0  0  0  0  0  0  0  0
   11.5028   14.7064   19.3405 H   0  0  0  0  0  0  0  0  0  0  0  0
   11.0079   15.5001   17.9623 H   0  0  0  0  0  0  0  0  0  0  0  0
 21 22  1  0
 22  1  1  0
  1  2  2  0
  2  3  1  0
  3  4  2  0
  4  5  1  0
  4  6  1  0
  6  7  1  0
  7  8  2  0
  7  9  1  0
  9 10  1  0
 10 11  1  0
 10 12  2  0
 12 13  1  0
 13 14  1  0
 14 24  1  0
 24 25  1  0
 25 26  1  0
 14 15  2  0
 15 16  1  0
 16  1  1  0
 15  3  1  0
 13  6  2  0
 22 23  1  0
  9 17  1  0
 11 18  1  0
 11 19  1  0
 26 27  1  0
 26 28  1  0
 16 20  1  0
M  END
> <minimizedAffinity>
-6.68015

> <CNNscore>
0.7016340494

> <CNNaffinity>
6.8215160370

> <CNN_VS>
4.7862081528

> <CNNaffinity_variance>
0.0879256725

$$$$



 28 30  0  0  0  0  0  0  0  0999 V2000
   15.7619   16.0802   20.9549 C   0  0  0  0  0  0  0  0  0  0  0  0
   14.9757   15.8605   19.9323 N   0  0  0  0  0  0  0  0  0  0  0  0
   15.6839   16.2494   18.8118 C   0  0  0  0  0  0  0  0  0  0  0  0
   15.3370   16.2577   17.4491 C   0  0  0  0  0  0  0  0  0  0  0  0
   13.7651   15.6565   17.1321 Cl  0  0  0  0  0  0  0  0  0  0  0  0
   16.2533   16.7414   16.5063 C   0  0  0  0  0  0  0  0  0  0  0  0
   15.9569   16.8080   15.0576 C   0  0  0  0  0  0  0  0  0  0  0  0
   14.8905   16.4815   14.5536 O   0  0  0  0  0  0  0  0  0  0  0  0
   16.9668   17.2818   14.2585 N   0  0  0  0  0  0  0  0  0  0  0  0
   18.1569   17.7314   14.7279 C   0  0  0  0  0  0  0  0  0  0  0  0
   19.0358   18.2031   13.8123 N   0  0  0  0  0  0  0  0  0  0  0  0
   18.4586   17.7105   15.9820 N   0  0  0  0  0  0  0  0  0  0  0  0
   17.5228   17.2035   16.9074 C   0  0  0  0  0  0  0  0  0  0  0  0
   17.9078   17.1795   18.2712 C   0  0  0  0  0  0  0  0  0  0  0  0
   16.9437   16.7088   19.1778 C   0  0  0  0  0  0  0  0  0  0  0  0
   16.9557   16.6073   20.5494 N   0  0  0  0  0  0  0  0  0  0  0  0
   16.8183   17.2963   13.2854 H   0  0  0  0  0  0  0  0  0  0  0  0
   18.7941   18.2139   12.8580 H   0  0  0  0  0  0  0  0  0  0  0  0
   19.9165   18.5353   14.1009 H   0  0  0  0  0  0  0  0  0  0  0  0
   17.6987   16.8701   21.1394 H   0  0  0  0  0  0  0  0  0  0  0  0
   16.1375   16.6208   23.2946 C   0  0  0  0  0  0  0  0  0  0  0  0
   15.4584   15.8784   22.2528 N   0  0  0  0  0  0  0  0  0  0  0  0
   14.7681   15.2197   22.4950 H   0  0  0  0  0  0  0  0  0  0  0  0
   19.2697   17.6601   18.7201 C   0  0  0  0  0  0  0  0  0  0  0  0
   19.5357   17.4314   20.2123 C   0  0  0  0  0  0  0  0  0  0  0  0
   20.3186   16.2139   20.4588 N   0  0  0  0  0  0  0  0  0  0  0  0
   19.8007   15.4025   20.1216 H   0  0  0  0  0  0  0  0  0  0  0  0
   20.4894   16.1164   21.4597 H   0  0  0  0  0  0  0  0  0  0  0  0
 21 22  1  0
 22  1  1  0
  1  2  2  0
  2  3  1  0
  3  4  2  0
  4  5  1  0
  4  6  1  0
  6  7  1  0
  7  8  2  0
  7  9  1  0
  9 10  1  0
 10 11  1  0
 10 12  2  0
 12 13  1  0
 13 14  1  0
 14 24  1  0
 24 25  1  0
 25 26  1  0
 14 15  2  0
 15 16  1  0
 16  1  1  0
 15  3  1  0
 13  6  2  0
 22 23  1  0
  9 17  1  0
 11 18  1  0
 11 19  1  0
 26 27  1  0
 26 28  1  0
 16 20  1  0
M  END
> <minimizedAffinity>
-7.37461

> <CNNscore>
0.2230016291

> <CNNaffinity>
4.8236441612

> <CNN_VS>
1.0756804943

> <CNNaffinity_variance>
1.6014986038

$$$$



 28 30  0  0  0  0  0  0  0  0999 V2000
   16.6416   16.3578   21.2360 C   0  0  0  0  0  0  0  0  0  0  0  0
   17.5099   16.8839   20.4107 N   0  0  0  0  0  0  0  0  0  0  0  0
   16.9550   16.7797   19.1499 C   0  0  0  0  0  0  0  0  0  0  0  0
   17.4412   17.1576   17.8859 C   0  0  0  0  0  0  0  0  0  0  0  0
   18.9852   17.8972   17.9317 Cl  0  0  0  0  0  0  0  0  0  0  0  0
   16.6689   16.9041   16.7449 C   0  0  0  0  0  0  0  0  0  0  0  0
   17.1186   17.2468   15.3770 C   0  0  0  0  0  0  0  0  0  0  0  0
   18.2025   17.7486   15.1101 O   0  0  0  0  0  0  0  0  0  0  0  0
   16.2378   16.9593   14.3648 N   0  0  0  0  0  0  0  0  0  0  0  0
   15.0446   16.3426   14.5511 C   0  0  0  0  0  0  0  0  0  0  0  0
   14.3056   16.0949   13.4439 N   0  0  0  0  0  0  0  0  0  0  0  0
   14.6135   16.0082   15.7201 N   0  0  0  0  0  0  0  0  0  0  0  0
   15.4051   16.2900   16.8528 C   0  0  0  0  0  0  0  0  0  0  0  0
   14.8797   15.9249   18.1176 C   0  0  0  0  0  0  0  0  0  0  0  0
   15.7042   16.1781   19.2262 C   0  0  0  0  0  0  0  0  0  0  0  0
   15.5417   15.9034   20.5641 N   0  0  0  0  0  0  0  0  0  0  0  0
   16.4874   17.2162   13.4478 H   0  0  0  0  0  0  0  0  0  0  0  0
   14.6453   16.3547   12.5571 H   0  0  0  0  0  0  0  0  0  0  0  0
   13.4287   15.6549   13.5256 H   0  0  0  0  0  0  0  0  0  0  0  0
   14.7645   15.4552   20.9692 H   0  0  0  0  0  0  0  0  0  0  0  0
   17.9569   16.7486   23.2422 C   0  0  0  0  0  0  0  0  0  0  0  0
   16.7916   16.2146   22.5680 N   0  0  0  0  0  0  0  0  0  0  0  0
   16.1018   15.7422   23.0879 H   0  0  0  0  0  0  0  0  0  0  0  0
   13.5208   15.2757   18.2553 C   0  0  0  0  0  0  0  0  0  0  0  0
   12.8543   14.9652   16.9103 C   0  0  0  0  0  0  0  0  0  0  0  0
   11.3892   15.0280   16.9864 N   0  0  0  0  0  0  0  0  0  0  0  0
   11.0532   14.3321   17.6521 H   0  0  0  0  0  0  0  0  0  0  0  0
   10.9925   14.8376   16.0662 H   0  0  0  0  0  0  0  0  0  0  0  0
 21 22  1  0
 22  1  1  0
  1  2  2  0
  2  3  1  0
  3  4  2  0
  4  5  1  0
  4  6  1  0
  6  7  1  0
  7  8  2  0
  7  9  1  0
  9 10  1  0
 10 11  1  0
 10 12  2  0
 12 13  1  0
 13 14  1  0
 14 24  1  0
 24 25  1  0
 25 26  1  0
 14 15  2  0
 15 16  1  0
 16  1  1  0
 15  3  1  0
 13  6  2  0
 22 23  1  0
  9 17  1  0
 11 18  1  0
 11 19  1  0
 26 27  1  0
 26 28  1  0
 16 20  1  0
M  END
> <minimizedAffinity>
-7.84220

> <CNNscore>
0.2151051462

> <CNNaffinity>
5.4444584846

> <CNN_VS>
1.1711310148

> <CNNaffinity_variance>
0.6844112277

$$$$



 28 30  0  0  0  0  0  0  0  0999 V2000
   18.1047   18.0052   13.8063 C   0  0  0  0  0  0  0  0  0  0  0  0
   16.8777   17.5515   13.8272 N   0  0  0  0  0  0  0  0  0  0  0  0
   16.6053   17.2385   15.1449 C   0  0  0  0  0  0  0  0  0  0  0  0
   15.4588   16.6993   15.7547 C   0  0  0  0  0  0  0  0  0  0  0  0
   14.1709   16.4030   14.6654 Cl  0  0  0  0  0  0  0  0  0  0  0  0
   15.4624   16.4499   17.1332 C   0  0  0  0  0  0  0  0  0  0  0  0
   14.3072   15.8607   17.8468 C   0  0  0  0  0  0  0  0  0  0  0  0
   13.2654   15.5116   17.3076 O   0  0  0  0  0  0  0  0  0  0  0  0
   14.4549   15.7017   19.2017 N   0  0  0  0  0  0  0  0  0  0  0  0
   15.5926   15.9937   19.8793 C   0  0  0  0  0  0  0  0  0  0  0  0
   15.5918   15.7447   21.2102 N   0  0  0  0  0  0  0  0  0  0  0  0
   16.6328   16.4931   19.3024 N   0  0  0  0  0  0  0  0  0  0  0  0
   16.5956   16.7486   17.9159 C   0  0  0  0  0  0  0  0  0  0  0  0
   17.7537   17.3189   17.3307 C   0  0  0  0  0  0  0  0  0  0  0  0
   17.7072   17.5255   15.9422 C   0  0  0  0  0  0  0  0  0  0  0  0
   18.6518   17.9932   15.0586 N   0  0  0  0  0  0  0  0  0  0  0  0
   13.6884   15.3547   19.7128 H   0  0  0  0  0  0  0  0  0  0  0  0
   14.7919   15.3634   21.6392 H   0  0  0  0  0  0  0  0  0  0  0  0
   16.3911   15.9451   21.7489 H   0  0  0  0  0  0  0  0  0  0  0  0
   19.5674   18.2721   15.2892 H   0  0  0  0  0  0  0  0  0  0  0  0
   19.9181   17.6164   12.2353 C   0  0  0  0  0  0  0  0  0  0  0  0
   18.7937   18.3934   12.7146 N   0  0  0  0  0  0  0  0  0  0  0  0
   18.5299   19.2135   12.2381 H   0  0  0  0  0  0  0  0  0  0  0  0
   18.9752   17.6574   18.1556 C   0  0  0  0  0  0  0  0  0  0  0  0
   18.7759   17.4365   19.6593 C   0  0  0  0  0  0  0  0  0  0  0  0
   19.7919   16.5437   20.2311 N   0  0  0  0  0  0  0  0  0  0  0  0
   19.7296   15.6283   19.7855 H   0  0  0  0  0  0  0  0  0  0  0  0
   19.6325   16.4453   21.2338 H   0  0  0  0  0  0  0  0  0  0  0  0
 21 22  1  0
 22  1  1  0
  1  2  2  0
  2  3  1  0
  3  4  2  0
  4  5  1  0
  4  6  1  0
  6  7  1  0
  7  8  2  0
  7  9  1  0
  9 10  1  0
 10 11  1  0
 10 12  2  0
 12 13  1  0
 13 14  1  0
 14 24  1  0
 24 25  1  0
 25 26  1  0
 14 15  2  0
 15 16  1  0
 16  1  1  0
 15  3  1  0
 13  6  2  0
 22 23  1  0
  9 17  1  0
 11 18  1  0
 11 19  1  0
 26 27  1  0
 26 28  1  0
 16 20  1  0
M  END
> <minimizedAffinity>
-8.19343

> <CNNscore>
0.2149674147

> <CNNaffinity>
5.2322001457

> <CNN_VS>
1.1247525215

> <CNNaffinity_variance>
0.7385449409

$$$$



 28 30  0  0  0  0  0  0  0  0999 V2000
   12.3825   16.1766   15.1508 C   0  0  0  0  0  0  0  0  0  0  0  0
   13.3442   16.7128   14.4440 N   0  0  0  0  0  0  0  0  0  0  0  0
   14.4448   16.7758   15.2765 C   0  0  0  0  0  0  0  0  0  0  0  0
   15.7436   17.2710   15.0649 C   0  0  0  0  0  0  0  0  0  0  0  0
   16.0023   17.8809   13.4857 Cl  0  0  0  0  0  0  0  0  0  0  0  0
   16.6744   17.2377   16.1114 C   0  0  0  0  0  0  0  0  0  0  0  0
   18.0524   17.7615   15.9790 C   0  0  0  0  0  0  0  0  0  0  0  0
   18.4967   18.2932   14.9701 O   0  0  0  0  0  0  0  0  0  0  0  0
   18.8533   17.6332   17.0857 N   0  0  0  0  0  0  0  0  0  0  0  0
   18.4338   17.1219   18.2695 C   0  0  0  0  0  0  0  0  0  0  0  0
   19.3361   17.0980   19.2787 N   0  0  0  0  0  0  0  0  0  0  0  0
   17.2389   16.6674   18.4423 N   0  0  0  0  0  0  0  0  0  0  0  0
   16.3275   16.6990   17.3666 C   0  0  0  0  0  0  0  0  0  0  0  0
   15.0339   16.1676   17.5973 C   0  0  0  0  0  0  0  0  0  0  0  0
   14.1317   16.2481   16.5239 C   0  0  0  0  0  0  0  0  0  0  0  0
   12.8069   15.8938   16.4186 N   0  0  0  0  0  0  0  0  0  0  0  0
   19.7894   17.9303   17.0161 H   0  0  0  0  0  0  0  0  0  0  0  0
   20.2451   17.4478   19.1346 H   0  0  0  0  0  0  0  0  0  0  0  0
   19.0833   16.7309   20.1565 H   0  0  0  0  0  0  0  0  0  0  0  0
   12.2572   15.5025   17.1356 H   0  0  0  0  0  0  0  0  0  0  0  0
   10.2578   17.0713   14.3808 C   0  0  0  0  0  0  0  0  0  0  0  0
   11.1159   15.9619   14.7422 N   0  0  0  0  0  0  0  0  0  0  0  0
   10.7706   15.0415   14.6888 H   0  0  0  0  0  0  0  0  0  0  0  0
   14.6461   15.5747   18.9335 C   0  0  0  0  0  0  0  0  0  0  0  0
   15.0717   14.1113   19.0978 C   0  0  0  0  0  0  0  0  0  0  0  0
   13.9228   13.1979   19.1401 N   0  0  0  0  0  0  0  0  0  0  0  0
   13.3348   13.4281   19.9411 H   0  0  0  0  0  0  0  0  0  0  0  0
   14.2550   12.2375   19.2269 H   0  0  0  0  0  0  0  0  0  0  0  0
 21 22  1  0
 22  1  1  0
  1  2  2  0
  2  3  1  0
  3  4  2  0
  4  5  1  0
  4  6  1  0
  6  7  1  0
  7  8  2  0
  7  9  1  0
  9 10  1  0
 10 11  1  0
 10 12  2  0
 12 13  1  0
 13 14  1  0
 14 24  1  0
 24 25  1  0
 25 26  1  0
 14 15  2  0
 15 16  1  0
 16  1  1  0
 15  3  1  0
 13  6  2  0
 22 23  1  0
  9 17  1  0
 11 18  1  0
 11 19  1  0
 26 27  1  0
 26 28  1  0
 16 20  1  0
M  END
> <minimizedAffinity>
-8.26996

> <CNNscore>
0.2114485502

> <CNNaffinity>
5.0812153816

> <CNN_VS>
1.0744156837

> <CNNaffinity_variance>
1.0875649452

$$$$



 28 30  0  0  0  0  0  0  0  0999 V2000
   18.4325   16.8937   18.7271 C   0  0  0  0  0  0  0  0  0  0  0  0
   18.5477   17.3445   17.5042 N   0  0  0  0  0  0  0  0  0  0  0  0
   17.3016   17.2066   16.9240 C   0  0  0  0  0  0  0  0  0  0  0  0
   16.8402   17.5058   15.6299 C   0  0  0  0  0  0  0  0  0  0  0  0
   18.0372   18.1806   14.6079 Cl  0  0  0  0  0  0  0  0  0  0  0  0
   15.5083   17.2334   15.2916 C   0  0  0  0  0  0  0  0  0  0  0  0
   14.9511   17.4943   13.9454 C   0  0  0  0  0  0  0  0  0  0  0  0
   15.5953   17.9371   13.0036 O   0  0  0  0  0  0  0  0  0  0  0  0
   13.6218   17.1985   13.7771 N   0  0  0  0  0  0  0  0  0  0  0  0
   12.8421   16.6419   14.7369 C   0  0  0  0  0  0  0  0  0  0  0  0
   11.5576   16.3756   14.4018 N   0  0  0  0  0  0  0  0  0  0  0  0
   13.2828   16.3796   15.9205 N   0  0  0  0  0  0  0  0  0  0  0  0
   14.6239   16.6789   16.2383 C   0  0  0  0  0  0  0  0  0  0  0  0
   15.0563   16.3943   17.5578 C   0  0  0  0  0  0  0  0  0  0  0  0
   16.4063   16.6625   17.8376 C   0  0  0  0  0  0  0  0  0  0  0  0
   17.1607   16.4561   18.9690 N   0  0  0  0  0  0  0  0  0  0  0  0
   13.2092   17.4027   12.9069 H   0  0  0  0  0  0  0  0  0  0  0  0
   11.2328   16.5803   13.4952 H   0  0  0  0  0  0  0  0  0  0  0  0
   10.9483   15.9773   15.0647 H   0  0  0  0  0  0  0  0  0  0  0  0
   16.8388   16.0600   19.8109 H   0  0  0  0  0  0  0  0  0  0  0  0
   19.1146   16.7755   21.0569 C   0  0  0  0  0  0  0  0  0  0  0  0
   19.4192   16.8050   19.6413 N   0  0  0  0  0  0  0  0  0  0  0  0
   20.3565   16.7598   19.3437 H   0  0  0  0  0  0  0  0  0  0  0  0
   14.1195   15.8100   18.5914 C   0  0  0  0  0  0  0  0  0  0  0  0
   13.7728   14.3386   18.3377 C   0  0  0  0  0  0  0  0  0  0  0  0
   14.5473   13.4283   19.1907 N   0  0  0  0  0  0  0  0  0  0  0  0
   15.5414   13.5381   18.9905 H   0  0  0  0  0  0  0  0  0  0  0  0
   14.2670   12.4657   19.0031 H   0  0  0  0  0  0  0  0  0  0  0  0
 21 22  1  0
 22  1  1  0
  1  2  2  0
  2  3  1  0
  3  4  2  0
  4  5  1  0
  4  6  1  0
  6  7  1  0
  7  8  2  0
  7  9  1  0
  9 10  1  0
 10 11  1  0
 10 12  2  0
 12 13  1  0
 13 14  1  0
 14 24  1  0
 24 25  1  0
 25 26  1  0
 14 15  2  0
 15 16  1  0
 16  1  1  0
 15  3  1  0
 13  6  2  0
 22 23  1  0
  9 17  1  0
 11 18  1  0
 11 19  1  0
 26 27  1  0
 26 28  1  0
 16 20  1  0
M  END
> <minimizedAffinity>
-7.62157

> <CNNscore>
0.2027687132

> <CNNaffinity>
4.9345512390

> <CNN_VS>
1.0005725622

> <CNNaffinity_variance>
1.1816744804

$$$$



 28 30  0  0  0  0  0  0  0  0999 V2000
   17.1327   20.7792   10.7687 C   0  0  0  0  0  0  0  0  0  0  0  0
   17.1426   19.6353   10.1337 N   0  0  0  0  0  0  0  0  0  0  0  0
   18.3668   19.0553   10.4043 C   0  0  0  0  0  0  0  0  0  0  0  0
   18.9352   17.8417    9.9787 C   0  0  0  0  0  0  0  0  0  0  0  0
   17.9113   16.9169    8.9641 Cl  0  0  0  0  0  0  0  0  0  0  0  0
   20.2318   17.5051   10.3886 C   0  0  0  0  0  0  0  0  0  0  0  0
   20.9114   16.2603    9.9651 C   0  0  0  0  0  0  0  0  0  0  0  0
   20.4280   15.4321    9.2045 O   0  0  0  0  0  0  0  0  0  0  0  0
   22.1707   16.0603   10.4722 N   0  0  0  0  0  0  0  0  0  0  0  0
   22.8180   16.9493   11.2656 C   0  0  0  0  0  0  0  0  0  0  0  0
   24.0730   16.6210   11.6534 N   0  0  0  0  0  0  0  0  0  0  0  0
   22.2772   18.0557   11.6498 N   0  0  0  0  0  0  0  0  0  0  0  0
   20.9644   18.3614   11.2347 C   0  0  0  0  0  0  0  0  0  0  0  0
   20.4040   19.5770   11.7008 C   0  0  0  0  0  0  0  0  0  0  0  0
   19.1118   19.8788   11.2405 C   0  0  0  0  0  0  0  0  0  0  0  0
   18.3074   20.9768   11.4383 N   0  0  0  0  0  0  0  0  0  0  0  0
   22.6321   15.2205   10.2463 H   0  0  0  0  0  0  0  0  0  0  0  0
   24.4750   15.7738   11.3537 H   0  0  0  0  0  0  0  0  0  0  0  0
   24.5835   17.2295   12.2352 H   0  0  0  0  0  0  0  0  0  0  0  0
   18.5389   21.7710   11.9722 H   0  0  0  0  0  0  0  0  0  0  0  0
   15.4091   22.0125   11.9586 C   0  0  0  0  0  0  0  0  0  0  0  0
   16.1421   21.6934   10.7510 N   0  0  0  0  0  0  0  0  0  0  0  0
   15.9146   22.1489    9.9083 H   0  0  0  0  0  0  0  0  0  0  0  0
   21.1696   20.5037   12.6186 C   0  0  0  0  0  0  0  0  0  0  0  0
   21.8065   21.6932   11.8911 C   0  0  0  0  0  0  0  0  0  0  0  0
   21.8481   22.9001   12.7264 N   0  0  0  0  0  0  0  0  0  0  0  0
   20.8975   23.1765   12.9721 H   0  0  0  0  0  0  0  0  0  0  0  0
   22.2991   23.6554   12.2102 H   0  0  0  0  0  0  0  0  0  0  0  0
 21 22  1  0
 22  1  1  0
  1  2  2  0
  2  3  1  0
  3  4  2  0
  4  5  1  0
  4  6  1  0
  6  7  1  0
  7  8  2  0
  7  9  1  0
  9 10  1  0
 10 11  1  0
 10 12  2  0
 12 13  1  0
 13 14  1  0
 14 24  1  0
 24 25  1  0
 25 26  1  0
 14 15  2  0
 15 16  1  0
 16  1  1  0
 15  3  1  0
 13  6  2  0
 22 23  1  0
  9 17  1  0
 11 18  1  0
 11 19  1  0
 26 27  1  0
 26 28  1  0
 16 20  1  0
M  END
> <minimizedAffinity>
-4.98533

> <CNNscore>
0.1845797598

> <CNNaffinity>
4.8406758308

> <CNN_VS>
0.8934907913

> <CNNaffinity_variance>
0.0144983158

$$$$



 28 30  0  0  0  0  0  0  0  0999 V2000
   18.0772   18.2522   14.4665 C   0  0  0  0  0  0  0  0  0  0  0  0
   18.3216   18.0196   15.7306 N   0  0  0  0  0  0  0  0  0  0  0  0
   17.2091   17.3659   16.2239 C   0  0  0  0  0  0  0  0  0  0  0  0
   16.9042   16.8918   17.5120 C   0  0  0  0  0  0  0  0  0  0  0  0
   18.1483   17.1569   18.6588 Cl  0  0  0  0  0  0  0  0  0  0  0  0
   15.6663   16.2797   17.7475 C   0  0  0  0  0  0  0  0  0  0  0  0
   15.2580   15.7771   19.0785 C   0  0  0  0  0  0  0  0  0  0  0  0
   15.9368   15.8725   20.0925 O   0  0  0  0  0  0  0  0  0  0  0  0
   14.0249   15.1786   19.1428 N   0  0  0  0  0  0  0  0  0  0  0  0
   13.1720   15.0858   18.0927 C   0  0  0  0  0  0  0  0  0  0  0  0
   11.9749   14.4986   18.3282 N   0  0  0  0  0  0  0  0  0  0  0  0
   13.4724   15.5224   16.9166 N   0  0  0  0  0  0  0  0  0  0  0  0
   14.7321   16.1201   16.7046 C   0  0  0  0  0  0  0  0  0  0  0  0
   15.0260   16.5638   15.3909 C   0  0  0  0  0  0  0  0  0  0  0  0
   16.2695   17.1926   15.2142 C   0  0  0  0  0  0  0  0  0  0  0  0
   16.8427   17.7847   14.1131 N   0  0  0  0  0  0  0  0  0  0  0  0
   13.7424   14.7931   20.0035 H   0  0  0  0  0  0  0  0  0  0  0  0
   11.7571   14.1693   19.2301 H   0  0  0  0  0  0  0  0  0  0  0  0
   11.3223   14.4010   17.5976 H   0  0  0  0  0  0  0  0  0  0  0  0
   16.4329   17.8591   13.2210 H   0  0  0  0  0  0  0  0  0  0  0  0
   19.6837   18.1784   12.6440 C   0  0  0  0  0  0  0  0  0  0  0  0
   18.8817   18.9067   13.6052 N   0  0  0  0  0  0  0  0  0  0  0  0
   18.9245   19.8900   13.6299 H   0  0  0  0  0  0  0  0  0  0  0  0
   14.0415   16.3911   14.2559 C   0  0  0  0  0  0  0  0  0  0  0  0
   13.0177   17.5278   14.1586 C   0  0  0  0  0  0  0  0  0  0  0  0
   11.7092   17.1479   14.7060 N   0  0  0  0  0  0  0  0  0  0  0  0
   11.3331   16.3629   14.1742 H   0  0  0  0  0  0  0  0  0  0  0  0
   11.0702   17.9403   14.6405 H   0  0  0  0  0  0  0  0  0  0  0  0
 21 22  1  0
 22  1  1  0
  1  2  2  0
  2  3  1  0
  3  4  2  0
  4  5  1  0
  4  6  1  0
  6  7  1  0
  7  8  2  0
  7  9  1  0
  9 10  1  0
 10 11  1  0
 10 12  2  0
 12 13  1  0
 13 14  1  0
 14 24  1  0
 24 25  1  0
 25 26  1  0
 14 15  2  0
 15 16  1  0
 16  1  1  0
 15  3  1  0
 13  6  2  0
 22 23  1  0
  9 17  1  0
 11 18  1  0
 11 19  1  0
 26 27  1  0
 26 28  1  0
 16 20  1  0
M  END
> <minimizedAffinity>
-7.79385

> <CNNscore>
0.1762124747

> <CNNaffinity>
4.3070874214

> <CNN_VS>
0.7589625120

> <CNNaffinity_variance>
1.9187718630

$$$$



 28 30  0  0  0  0  0  0  0  0999 V2000
   14.1087   16.8786   14.7985 C   0  0  0  0  0  0  0  0  0  0  0  0
   13.6885   16.5408   15.9906 N   0  0  0  0  0  0  0  0  0  0  0  0
   14.7865   16.6264   16.8245 C   0  0  0  0  0  0  0  0  0  0  0  0
   14.9337   16.3639   18.1980 C   0  0  0  0  0  0  0  0  0  0  0  0
   13.4844   15.8737   18.9675 Cl  0  0  0  0  0  0  0  0  0  0  0  0
   16.1918   16.5070   18.7974 C   0  0  0  0  0  0  0  0  0  0  0  0
   16.4367   16.2261   20.2299 C   0  0  0  0  0  0  0  0  0  0  0  0
   15.5863   15.8194   21.0107 O   0  0  0  0  0  0  0  0  0  0  0  0
   17.7175   16.4385   20.6739 N   0  0  0  0  0  0  0  0  0  0  0  0
   18.7430   16.8217   19.8737 C   0  0  0  0  0  0  0  0  0  0  0  0
   19.9576   16.9523   20.4577 N   0  0  0  0  0  0  0  0  0  0  0  0
   18.5866   17.0630   18.6161 N   0  0  0  0  0  0  0  0  0  0  0  0
   17.3055   16.9261   18.0425 C   0  0  0  0  0  0  0  0  0  0  0  0
   17.1780   17.2243   16.6627 C   0  0  0  0  0  0  0  0  0  0  0  0
   15.9018   17.0408   16.1057 C   0  0  0  0  0  0  0  0  0  0  0  0
   15.4429   17.1737   14.8159 N   0  0  0  0  0  0  0  0  0  0  0  0
   17.9032   16.3046   21.6314 H   0  0  0  0  0  0  0  0  0  0  0  0
   20.0645   16.7652   21.4184 H   0  0  0  0  0  0  0  0  0  0  0  0
   20.7338   17.2342   19.9218 H   0  0  0  0  0  0  0  0  0  0  0  0
   15.9842   17.4369   14.0369 H   0  0  0  0  0  0  0  0  0  0  0  0
   12.4531   17.9827   13.4029 C   0  0  0  0  0  0  0  0  0  0  0  0
   13.3738   16.8967   13.6685 N   0  0  0  0  0  0  0  0  0  0  0  0
   13.4639   16.1640   13.0171 H   0  0  0  0  0  0  0  0  0  0  0  0
   18.3585   17.6867   15.8382 C   0  0  0  0  0  0  0  0  0  0  0  0
   17.9564   18.3531   14.5177 C   0  0  0  0  0  0  0  0  0  0  0  0
   18.2717   17.5168   13.3526 N   0  0  0  0  0  0  0  0  0  0  0  0
   19.2784   17.3578   13.3107 H   0  0  0  0  0  0  0  0  0  0  0  0
   17.9665   17.9898   12.5020 H   0  0  0  0  0  0  0  0  0  0  0  0
 21 22  1  0
 22  1  1  0
  1  2  2  0
  2  3  1  0
  3  4  2  0
  4  5  1  0
  4  6  1  0
  6  7  1  0
  7  8  2  0
  7  9  1  0
  9 10  1  0
 10 11  1  0
 10 12  2  0
 12 13  1  0
 13 14  1  0
 14 24  1  0
 24 25  1  0
 25 26  1  0
 14 15  2  0
 15 16  1  0
 16  1  1  0
 15  3  1  0
 13  6  2  0
 22 23  1  0
  9 17  1  0
 11 18  1  0
 11 19  1  0
 26 27  1  0
 26 28  1  0
 16 20  1  0
M  END
> <minimizedAffinity>
-6.75742

> <CNNscore>
0.1647748947

> <CNNaffinity>
4.9967336655

> <CNN_VS>
0.8233362436

> <CNNaffinity_variance>
0.6113267541

$$$$
