


 21 23  0  0  0  0  0  0  0  0999 V2000
    6.2765   61.3279    0.1127 O   0  0  0  0  0  0  0  0  0  0  0  0
    5.8380   60.2350    0.4539 C   0  0  0  0  0  0  0  0  0  0  0  0
    4.6109   60.1306    1.0825 N   0  0  0  0  0  0  0  0  0  0  0  0
    4.0456   58.9521    1.4846 C   0  0  0  0  0  0  0  0  0  0  0  0
    4.6742   57.7854    1.3067 C   0  0  0  0  0  0  0  0  0  0  0  0
    5.9983   57.7686    0.6716 C   0  0  0  0  0  0  0  0  0  0  0  0
    6.7532   56.6198    0.4454 C   0  0  0  0  0  0  0  0  0  0  0  0
    7.9383   56.6716   -0.1868 N   0  0  0  0  0  0  0  0  0  0  0  0
    8.3742   57.8778   -0.5719 C   0  0  0  0  0  0  0  0  0  0  0  0
    9.8858   57.9132   -1.3622 Cl  0  0  0  0  0  0  0  0  0  0  0  0
    7.7684   59.0453   -0.3949 N   0  0  0  0  0  0  0  0  0  0  0  0
    6.5769   58.9520    0.2275 C   0  0  0  0  0  0  0  0  0  0  0  0
    4.1101   60.9611    1.2522 H   0  0  0  0  0  0  0  0  0  0  0  0
    6.2536   55.3686    0.8667 N   0  0  0  0  0  0  0  0  0  0  0  0
    5.4399   54.9798    0.4716 H   0  0  0  0  0  0  0  0  0  0  0  0
    7.0060   54.6702    1.9256 C   0  0  0  0  0  0  0  0  0  0  0  0
    6.0040   53.9992    2.8780 C   0  0  0  0  0  0  0  0  0  0  0  0
    5.1694   52.9055    2.2047 C   0  0  0  0  0  0  0  0  0  0  0  0
    5.9184   52.1560    1.1035 C   0  0  0  0  0  0  0  0  0  0  0  0
    7.4233   52.1929    1.3185 C   0  0  0  0  0  0  0  0  0  0  0  0
    7.9679   53.6251    1.3222 C   0  0  0  0  0  0  0  0  0  0  0  0
  1  2  2  0
  2  3  1  0
  3  4  1  0
  4  5  2  0
  5  6  1  0
  6  7  2  0
  7 14  1  0
 14 16  1  0
 16 17  1  0
 17 18  1  0
 18 19  1  0
 19 20  1  0
 20 21  1  0
  7  8  1  0
  8  9  2  0
  9 10  1  0
  9 11  1  0
 11 12  2  0
 12  2  1  0
 12  6  1  0
 21 16  1  0
  3 13  1  0
 14 15  1  0
M  END
> <minimizedAffinity>
-8.29189

> <CNNscore>
0.9810488820

> <CNNaffinity>
7.1528186798

> <CNN_VS>
7.0172648430

> <CNNaffinity_variance>
0.1220486760

$$$$



 21 23  0  0  0  0  0  0  0  0999 V2000
    7.7382   61.0224   -0.5717 O   0  0  0  0  0  0  0  0  0  0  0  0
    7.7188   59.8072   -0.4104 C   0  0  0  0  0  0  0  0  0  0  0  0
    8.7609   59.0176   -0.8604 N   0  0  0  0  0  0  0  0  0  0  0  0
    8.8224   57.6596   -0.7115 C   0  0  0  0  0  0  0  0  0  0  0  0
    7.8348   56.9818   -0.1173 C   0  0  0  0  0  0  0  0  0  0  0  0
    6.6596   57.7079    0.3814 C   0  0  0  0  0  0  0  0  0  0  0  0
    5.5657   57.1108    1.0041 C   0  0  0  0  0  0  0  0  0  0  0  0
    4.5440   57.8423    1.4814 N   0  0  0  0  0  0  0  0  0  0  0  0
    4.6109   59.1692    1.3144 C   0  0  0  0  0  0  0  0  0  0  0  0
    3.2950   60.0700    1.9210 Cl  0  0  0  0  0  0  0  0  0  0  0  0
    5.5777   59.8563    0.7191 N   0  0  0  0  0  0  0  0  0  0  0  0
    6.5913   59.0916    0.2679 C   0  0  0  0  0  0  0  0  0  0  0  0
    9.5093   59.4633   -1.3191 H   0  0  0  0  0  0  0  0  0  0  0  0
    5.5383   55.7081    1.1607 N   0  0  0  0  0  0  0  0  0  0  0  0
    5.6620   55.1022    0.3947 H   0  0  0  0  0  0  0  0  0  0  0  0
    5.3160   55.1917    2.5242 C   0  0  0  0  0  0  0  0  0  0  0  0
    5.2430   53.6581    2.4618 C   0  0  0  0  0  0  0  0  0  0  0  0
    6.5533   53.0086    2.0062 C   0  0  0  0  0  0  0  0  0  0  0  0
    7.8002   53.7769    2.4424 C   0  0  0  0  0  0  0  0  0  0  0  0
    7.5450   54.6040    3.6927 C   0  0  0  0  0  0  0  0  0  0  0  0
    6.4419   55.6453    3.4770 C   0  0  0  0  0  0  0  0  0  0  0  0
  1  2  2  0
  2  3  1  0
  3  4  1  0
  4  5  2  0
  5  6  1  0
  6  7  2  0
  7 14  1  0
 14 16  1  0
 16 17  1  0
 17 18  1  0
 18 19  1  0
 19 20  1  0
 20 21  1  0
  7  8  1  0
  8  9  2  0
  9 10  1  0
  9 11  1  0
 11 12  2  0
 12  2  1  0
 12  6  1  0
 21 16  1  0
  3 13  1  0
 14 15  1  0
M  END
> <minimizedAffinity>
-7.37358

> <CNNscore>
0.9110214710

> <CNNaffinity>
6.7502017021

> <CNN_VS>
6.1495785713

> <CNNaffinity_variance>
0.1129354239

$$$$



 21 23  0  0  0  0  0  0  0  0999 V2000
    6.6818   61.1565   -0.1672 O   0  0  0  0  0  0  0  0  0  0  0  0
    7.3850   60.1683   -0.3461 C   0  0  0  0  0  0  0  0  0  0  0  0
    8.6109   60.2776   -0.9762 N   0  0  0  0  0  0  0  0  0  0  0  0
    9.4593   59.2297   -1.2047 C   0  0  0  0  0  0  0  0  0  0  0  0
    9.1380   57.9847   -0.8377 C   0  0  0  0  0  0  0  0  0  0  0  0
    7.8481   57.7363   -0.1807 C   0  0  0  0  0  0  0  0  0  0  0  0
    7.3991   56.4843    0.2338 C   0  0  0  0  0  0  0  0  0  0  0  0
    6.2269   56.3358    0.8746 N   0  0  0  0  0  0  0  0  0  0  0  0
    5.4972   57.4397    1.0796 C   0  0  0  0  0  0  0  0  0  0  0  0
    4.0100   57.2183    1.8857 Cl  0  0  0  0  0  0  0  0  0  0  0  0
    5.7963   58.6799    0.7137 N   0  0  0  0  0  0  0  0  0  0  0  0
    6.9848   58.7920    0.0888 C   0  0  0  0  0  0  0  0  0  0  0  0
    8.8921   61.1705   -1.2810 H   0  0  0  0  0  0  0  0  0  0  0  0
    8.2024   55.3477   -0.0012 N   0  0  0  0  0  0  0  0  0  0  0  0
    8.0766   54.7845   -0.7989 H   0  0  0  0  0  0  0  0  0  0  0  0
    9.2387   55.0421    1.0027 C   0  0  0  0  0  0  0  0  0  0  0  0
    8.5473   54.6108    2.3055 C   0  0  0  0  0  0  0  0  0  0  0  0
    7.7454   53.3135    2.1635 C   0  0  0  0  0  0  0  0  0  0  0  0
    8.3485   52.3288    1.1625 C   0  0  0  0  0  0  0  0  0  0  0  0
    9.8475   52.5303    1.0055 C   0  0  0  0  0  0  0  0  0  0  0  0
   10.1879   53.9352    0.4975 C   0  0  0  0  0  0  0  0  0  0  0  0
  1  2  2  0
  2  3  1  0
  3  4  1  0
  4  5  2  0
  5  6  1  0
  6  7  2  0
  7 14  1  0
 14 16  1  0
 16 17  1  0
 17 18  1  0
 18 19  1  0
 19 20  1  0
 20 21  1  0
  7  8  1  0
  8  9  2  0
  9 10  1  0
  9 11  1  0
 11 12  2  0
 12  2  1  0
 12  6  1  0
 21 16  1  0
  3 13  1  0
 14 15  1  0
M  END
> <minimizedAffinity>
-7.72204

> <CNNscore>
0.9043676257

> <CNNaffinity>
6.4542422295

> <CNN_VS>
5.8370075226

> <CNNaffinity_variance>
0.0145094609

$$$$



 21 23  0  0  0  0  0  0  0  0999 V2000
    6.8023   60.3682    0.2600 O   0  0  0  0  0  0  0  0  0  0  0  0
    6.2482   59.3362    0.6219 C   0  0  0  0  0  0  0  0  0  0  0  0
    4.9288   59.3496    1.0352 N   0  0  0  0  0  0  0  0  0  0  0  0
    4.2347   58.2441    1.4429 C   0  0  0  0  0  0  0  0  0  0  0  0
    4.8136   57.0396    1.4879 C   0  0  0  0  0  0  0  0  0  0  0  0
    6.2223   56.9009    1.0965 C   0  0  0  0  0  0  0  0  0  0  0  0
    6.9347   55.7038    1.1145 C   0  0  0  0  0  0  0  0  0  0  0  0
    8.2102   55.6396    0.6954 N   0  0  0  0  0  0  0  0  0  0  0  0
    8.7759   56.7798    0.2793 C   0  0  0  0  0  0  0  0  0  0  0  0
   10.3984   56.6690   -0.2365 Cl  0  0  0  0  0  0  0  0  0  0  0  0
    8.2196   57.9840    0.2373 N   0  0  0  0  0  0  0  0  0  0  0  0
    6.9369   58.0064    0.6496 C   0  0  0  0  0  0  0  0  0  0  0  0
    4.4570   60.2137    1.0361 H   0  0  0  0  0  0  0  0  0  0  0  0
    6.2976   54.5253    1.5592 N   0  0  0  0  0  0  0  0  0  0  0  0
    5.5704   54.5521    2.2223 H   0  0  0  0  0  0  0  0  0  0  0  0
    6.7710   53.2519    0.9852 C   0  0  0  0  0  0  0  0  0  0  0  0
    7.5022   52.4615    2.0817 C   0  0  0  0  0  0  0  0  0  0  0  0
    6.5901   52.0526    3.2423 C   0  0  0  0  0  0  0  0  0  0  0  0
    5.1495   51.7707    2.8173 C   0  0  0  0  0  0  0  0  0  0  0  0
    5.0634   51.3482    1.3591 C   0  0  0  0  0  0  0  0  0  0  0  0
    5.5947   52.4318    0.4150 C   0  0  0  0  0  0  0  0  0  0  0  0
  1  2  2  0
  2  3  1  0
  3  4  1  0
  4  5  2  0
  5  6  1  0
  6  7  2  0
  7 14  1  0
 14 16  1  0
 16 17  1  0
 17 18  1  0
 18 19  1  0
 19 20  1  0
 20 21  1  0
  7  8  1  0
  8  9  2  0
  9 10  1  0
  9 11  1  0
 11 12  2  0
 12  2  1  0
 12  6  1  0
 21 16  1  0
  3 13  1  0
 14 15  1  0
M  END
> <minimizedAffinity>
-6.46939

> <CNNscore>
0.8328104615

> <CNNaffinity>
6.7060170174

> <CNN_VS>
5.5848412514

> <CNNaffinity_variance>
0.2931032181

$$$$



 21 23  0  0  0  0  0  0  0  0999 V2000
    5.6266   59.7165    0.1306 O   0  0  0  0  0  0  0  0  0  0  0  0
    5.5838   58.6003    0.6359 C   0  0  0  0  0  0  0  0  0  0  0  0
    4.4509   58.1679    1.3003 N   0  0  0  0  0  0  0  0  0  0  0  0
    4.3172   56.9371    1.8811 C   0  0  0  0  0  0  0  0  0  0  0  0
    5.3159   56.0482    1.8597 C   0  0  0  0  0  0  0  0  0  0  0  0
    6.5820   56.4010    1.2043 C   0  0  0  0  0  0  0  0  0  0  0  0
    7.6944   55.5656    1.1299 C   0  0  0  0  0  0  0  0  0  0  0  0
    8.8062   55.9341    0.4706 N   0  0  0  0  0  0  0  0  0  0  0  0
    8.8086   57.1481   -0.0946 C   0  0  0  0  0  0  0  0  0  0  0  0
   10.2370   57.5921   -0.9151 Cl  0  0  0  0  0  0  0  0  0  0  0  0
    7.8310   58.0455   -0.0747 N   0  0  0  0  0  0  0  0  0  0  0  0
    6.7278   57.6349    0.5811 C   0  0  0  0  0  0  0  0  0  0  0  0
    3.6887   58.7883    1.3592 H   0  0  0  0  0  0  0  0  0  0  0  0
    7.6468   54.2929    1.7387 N   0  0  0  0  0  0  0  0  0  0  0  0
    7.7236   54.1859    2.7143 H   0  0  0  0  0  0  0  0  0  0  0  0
    7.4769   53.1309    0.8465 C   0  0  0  0  0  0  0  0  0  0  0  0
    8.3207   51.9675    1.3905 C   0  0  0  0  0  0  0  0  0  0  0  0
    7.8578   51.4763    2.7655 C   0  0  0  0  0  0  0  0  0  0  0  0
    6.3500   51.5984    2.9822 C   0  0  0  0  0  0  0  0  0  0  0  0
    5.5866   51.5713    1.6674 C   0  0  0  0  0  0  0  0  0  0  0  0
    5.9915   52.7253    0.7445 C   0  0  0  0  0  0  0  0  0  0  0  0
  1  2  2  0
  2  3  1  0
  3  4  1  0
  4  5  2  0
  5  6  1  0
  6  7  2  0
  7 14  1  0
 14 16  1  0
 16 17  1  0
 17 18  1  0
 18 19  1  0
 19 20  1  0
 20 21  1  0
  7  8  1  0
  8  9  2  0
  9 10  1  0
  9 11  1  0
 11 12  2  0
 12  2  1  0
 12  6  1  0
 21 16  1  0
  3 13  1  0
 14 15  1  0
M  END
> <minimizedAffinity>
-7.09281

> <CNNscore>
0.6363993883

> <CNNaffinity>
6.3219218254

> <CNN_VS>
4.0232672691

> <CNNaffinity_variance>
0.1332131177

$$$$



 21 23  0  0  0  0  0  0  0  0999 V2000
    5.7134   59.7808   -0.1418 O   0  0  0  0  0  0  0  0  0  0  0  0
    5.7510   58.7029    0.4411 C   0  0  0  0  0  0  0  0  0  0  0  0
    4.6690   58.2603    1.1795 N   0  0  0  0  0  0  0  0  0  0  0  0
    4.6250   57.0688    1.8493 C   0  0  0  0  0  0  0  0  0  0  0  0
    5.6698   56.2344    1.8491 C   0  0  0  0  0  0  0  0  0  0  0  0
    6.8895   56.6053    1.1197 C   0  0  0  0  0  0  0  0  0  0  0  0
    8.0428   55.8263    1.0582 C   0  0  0  0  0  0  0  0  0  0  0  0
    9.1075   56.2046    0.3301 N   0  0  0  0  0  0  0  0  0  0  0  0
    9.0219   57.3735   -0.3175 C   0  0  0  0  0  0  0  0  0  0  0  0
   10.3923   57.8321   -1.2244 Cl  0  0  0  0  0  0  0  0  0  0  0  0
    7.9976   58.2175   -0.3202 N   0  0  0  0  0  0  0  0  0  0  0  0
    6.9437   57.7975    0.4069 C   0  0  0  0  0  0  0  0  0  0  0  0
    3.8764   58.8424    1.2262 H   0  0  0  0  0  0  0  0  0  0  0  0
    8.0882   54.5997    1.7553 N   0  0  0  0  0  0  0  0  0  0  0  0
    8.1946   54.5672    2.7335 H   0  0  0  0  0  0  0  0  0  0  0  0
    7.9688   53.3690    0.9514 C   0  0  0  0  0  0  0  0  0  0  0  0
    9.3469   52.6924    0.8830 C   0  0  0  0  0  0  0  0  0  0  0  0
    9.8569   52.2204    2.2480 C   0  0  0  0  0  0  0  0  0  0  0  0
    8.7440   51.7739    3.1952 C   0  0  0  0  0  0  0  0  0  0  0  0
    7.5122   51.3043    2.4374 C   0  0  0  0  0  0  0  0  0  0  0  0
    6.9216   52.4119    1.5588 C   0  0  0  0  0  0  0  0  0  0  0  0
  1  2  2  0
  2  3  1  0
  3  4  1  0
  4  5  2  0
  5  6  1  0
  6  7  2  0
  7 14  1  0
 14 16  1  0
 16 17  1  0
 17 18  1  0
 18 19  1  0
 19 20  1  0
 20 21  1  0
  7  8  1  0
  8  9  2  0
  9 10  1  0
  9 11  1  0
 11 12  2  0
 12  2  1  0
 12  6  1  0
 21 16  1  0
  3 13  1  0
 14 15  1  0
M  END
> <minimizedAffinity>
-6.96210

> <CNNscore>
0.5236045718

> <CNNaffinity>
6.1620306969

> <CNN_VS>
3.2264673710

> <CNNaffinity_variance>
0.1207278669

$$$$



 21 23  0  0  0  0  0  0  0  0999 V2000
    9.9719   60.5852   -2.3547 O   0  0  0  0  0  0  0  0  0  0  0  0
    9.8340   59.5353   -1.7369 C   0  0  0  0  0  0  0  0  0  0  0  0
   10.7707   58.5239   -1.8435 N   0  0  0  0  0  0  0  0  0  0  0  0
   10.6981   57.3294   -1.1817 C   0  0  0  0  0  0  0  0  0  0  0  0
    9.6701   57.0450   -0.3752 C   0  0  0  0  0  0  0  0  0  0  0  0
    8.5964   58.0315   -0.1996 C   0  0  0  0  0  0  0  0  0  0  0  0
    7.4722   57.8436    0.6016 C   0  0  0  0  0  0  0  0  0  0  0  0
    6.5508   58.8100    0.7560 N   0  0  0  0  0  0  0  0  0  0  0  0
    6.7472   59.9549    0.0898 C   0  0  0  0  0  0  0  0  0  0  0  0
    5.5558   61.1585    0.2971 Cl  0  0  0  0  0  0  0  0  0  0  0  0
    7.7554   60.2498   -0.7213 N   0  0  0  0  0  0  0  0  0  0  0  0
    8.6664   59.2639   -0.8387 C   0  0  0  0  0  0  0  0  0  0  0  0
   11.5424   58.6739   -2.4362 H   0  0  0  0  0  0  0  0  0  0  0  0
    7.3069   56.6210    1.2874 N   0  0  0  0  0  0  0  0  0  0  0  0
    7.9314   56.3388    1.9943 H   0  0  0  0  0  0  0  0  0  0  0  0
    6.1560   55.7855    0.8968 C   0  0  0  0  0  0  0  0  0  0  0  0
    6.6840   54.4894    0.2622 C   0  0  0  0  0  0  0  0  0  0  0  0
    7.4847   53.6213    1.2376 C   0  0  0  0  0  0  0  0  0  0  0  0
    6.9952   53.7148    2.6822 C   0  0  0  0  0  0  0  0  0  0  0  0
    5.5274   54.1048    2.7569 C   0  0  0  0  0  0  0  0  0  0  0  0
    5.2629   55.4709    2.1154 C   0  0  0  0  0  0  0  0  0  0  0  0
  1  2  2  0
  2  3  1  0
  3  4  1  0
  4  5  2  0
  5  6  1  0
  6  7  2  0
  7 14  1  0
 14 16  1  0
 16 17  1  0
 17 18  1  0
 18 19  1  0
 19 20  1  0
 20 21  1  0
  7  8  1  0
  8  9  2  0
  9 10  1  0
  9 11  1  0
 11 12  2  0
 12  2  1  0
 12  6  1  0
 21 16  1  0
  3 13  1  0
 14 15  1  0
M  END
> <minimizedAffinity>
-6.84924

> <CNNscore>
0.5051032901

> <CNNaffinity>
6.2808761597

> <CNN_VS>
3.1724913120

> <CNNaffinity_variance>
0.0983736590

$$$$



 21 23  0  0  0  0  0  0  0  0999 V2000
    8.8375   59.1683   -0.7878 O   0  0  0  0  0  0  0  0  0  0  0  0
    8.8951   58.0941   -0.1999 C   0  0  0  0  0  0  0  0  0  0  0  0
   10.0489   57.3327   -0.2297 N   0  0  0  0  0  0  0  0  0  0  0  0
   10.1997   56.1315    0.4064 C   0  0  0  0  0  0  0  0  0  0  0  0
    9.1991   55.5876    1.1070 C   0  0  0  0  0  0  0  0  0  0  0  0
    7.9124   56.2905    1.1921 C   0  0  0  0  0  0  0  0  0  0  0  0
    6.7964   55.8182    1.8796 C   0  0  0  0  0  0  0  0  0  0  0  0
    5.6638   56.5377    1.9579 N   0  0  0  0  0  0  0  0  0  0  0  0
    5.6448   57.7196    1.3287 C   0  0  0  0  0  0  0  0  0  0  0  0
    4.1904   58.6050    1.4369 Cl  0  0  0  0  0  0  0  0  0  0  0  0
    6.6242   58.2692    0.6216 N   0  0  0  0  0  0  0  0  0  0  0  0
    7.7481   57.5271    0.5789 C   0  0  0  0  0  0  0  0  0  0  0  0
   10.8139   57.6788   -0.7438 H   0  0  0  0  0  0  0  0  0  0  0  0
    6.8620   54.5673    2.5303 N   0  0  0  0  0  0  0  0  0  0  0  0
    7.4604   54.4170    3.2975 H   0  0  0  0  0  0  0  0  0  0  0  0
    5.9932   53.4958    2.0085 C   0  0  0  0  0  0  0  0  0  0  0  0
    6.7174   52.8003    0.8452 C   0  0  0  0  0  0  0  0  0  0  0  0
    8.0037   52.0875    1.2735 C   0  0  0  0  0  0  0  0  0  0  0  0
    7.9445   51.5191    2.6908 C   0  0  0  0  0  0  0  0  0  0  0  0
    6.5164   51.2223    3.1209 C   0  0  0  0  0  0  0  0  0  0  0  0
    5.6422   52.4806    3.1165 C   0  0  0  0  0  0  0  0  0  0  0  0
  1  2  2  0
  2  3  1  0
  3  4  1  0
  4  5  2  0
  5  6  1  0
  6  7  2  0
  7 14  1  0
 14 16  1  0
 16 17  1  0
 17 18  1  0
 18 19  1  0
 19 20  1  0
 20 21  1  0
  7  8  1  0
  8  9  2  0
  9 10  1  0
  9 11  1  0
 11 12  2  0
 12  2  1  0
 12  6  1  0
 21 16  1  0
  3 13  1  0
 14 15  1  0
M  END
> <minimizedAffinity>
-6.93440

> <CNNscore>
0.4437030554

> <CNNaffinity>
5.9872779846

> <CNN_VS>
2.6565735340

> <CNNaffinity_variance>
0.0375970155

$$$$



 21 23  0  0  0  0  0  0  0  0999 V2000
    4.3309   59.0153    1.5176 O   0  0  0  0  0  0  0  0  0  0  0  0
    4.8357   57.8981    1.5226 C   0  0  0  0  0  0  0  0  0  0  0  0
    4.2082   56.8415    2.1564 N   0  0  0  0  0  0  0  0  0  0  0  0
    4.6967   55.5649    2.1994 C   0  0  0  0  0  0  0  0  0  0  0  0
    5.8635   55.2495    1.6275 C   0  0  0  0  0  0  0  0  0  0  0  0
    6.6377   56.2936    0.9438 C   0  0  0  0  0  0  0  0  0  0  0  0
    7.8687   56.0888    0.3245 C   0  0  0  0  0  0  0  0  0  0  0  0
    8.5006   57.0804   -0.3267 N   0  0  0  0  0  0  0  0  0  0  0  0
    7.9074   58.2809   -0.3375 C   0  0  0  0  0  0  0  0  0  0  0  0
    8.7380   59.5220   -1.1626 Cl  0  0  0  0  0  0  0  0  0  0  0  0
    6.7558   58.6132    0.2325 N   0  0  0  0  0  0  0  0  0  0  0  0
    6.1443   57.5906    0.8618 C   0  0  0  0  0  0  0  0  0  0  0  0
    3.3515   57.0204    2.6073 H   0  0  0  0  0  0  0  0  0  0  0  0
    8.4565   54.8058    0.3590 N   0  0  0  0  0  0  0  0  0  0  0  0
    8.2942   54.1460   -0.3534 H   0  0  0  0  0  0  0  0  0  0  0  0
    9.3248   54.4989    1.5110 C   0  0  0  0  0  0  0  0  0  0  0  0
    8.8039   53.2234    2.1915 C   0  0  0  0  0  0  0  0  0  0  0  0
    8.8882   51.9832    1.2965 C   0  0  0  0  0  0  0  0  0  0  0  0
   10.0772   52.0020    0.3366 C   0  0  0  0  0  0  0  0  0  0  0  0
   11.2159   52.8600    0.8652 C   0  0  0  0  0  0  0  0  0  0  0  0
   10.7910   54.3185    1.0650 C   0  0  0  0  0  0  0  0  0  0  0  0
  1  2  2  0
  2  3  1  0
  3  4  1  0
  4  5  2  0
  5  6  1  0
  6  7  2  0
  7 14  1  0
 14 16  1  0
 16 17  1  0
 17 18  1  0
 18 19  1  0
 19 20  1  0
 20 21  1  0
  7  8  1  0
  8  9  2  0
  9 10  1  0
  9 11  1  0
 11 12  2  0
 12  2  1  0
 12  6  1  0
 21 16  1  0
  3 13  1  0
 14 15  1  0
M  END
> <minimizedAffinity>
-7.52618

> <CNNscore>
0.3611048460

> <CNNaffinity>
5.8652877808

> <CNN_VS>
2.1179838181

> <CNNaffinity_variance>
0.0007973158

$$$$
