


 32 36  0  0  0  0  0  0  0  0999 V2000
   -5.0143   10.6795   21.2744 N   0  0  0  0  0  0  0  0  0  0  0  0
   -5.9789   11.6391   21.2989 C   0  0  0  0  0  0  0  0  0  0  0  0
   -7.1230   11.5020   20.8881 O   0  0  0  0  0  0  0  0  0  0  0  0
   -5.3945   12.9225   21.8213 C   0  0  0  0  0  0  0  0  0  0  0  0
   -3.9013   12.6147   21.9896 C   0  0  0  0  0  0  0  0  0  0  0  0
   -3.7735   11.2058   21.4772 C   0  0  0  0  0  0  0  0  0  0  0  0
   -2.7185   10.6465   21.2175 O   0  0  0  0  0  0  0  0  0  0  0  0
   -3.6169   12.8055   23.4798 C   0  0  0  0  0  0  0  0  0  0  0  0
   -4.9335   12.6373   24.1309 N   0  0  0  0  0  0  0  0  0  0  0  0
   -5.0604   13.3865   25.3903 C   0  0  0  0  0  0  0  0  0  0  0  0
   -5.6535   14.7487   25.0469 C   0  0  0  0  0  0  0  0  0  0  0  0
   -5.9555   14.7032   23.5578 C   0  0  0  0  0  0  0  0  0  0  0  0
   -5.9268   13.2192   23.2117 C   0  0  0  0  0  0  0  0  0  0  0  0
   -2.5919   11.9076   24.0818 C   0  0  0  0  0  0  0  0  0  0  0  0
   -2.9527   10.9623   25.0226 N   0  0  0  0  0  0  0  0  0  0  0  0
   -1.8198   10.3488   25.3336 C   0  0  0  0  0  0  0  0  0  0  0  0
   -0.7317   10.8376   24.6511 O   0  0  0  0  0  0  0  0  0  0  0  0
   -1.2357   11.8212   23.8617 C   0  0  0  0  0  0  0  0  0  0  0  0
   -0.5157   12.5880   23.0311 F   0  0  0  0  0  0  0  0  0  0  0  0
   -1.7459    9.2796   26.2915 C   0  0  0  0  0  0  0  0  0  0  0  0
   -2.5743    9.0780   27.3825 C   0  0  0  0  0  0  0  0  0  0  0  0
   -2.2205    7.9135   28.1292 C   0  0  0  0  0  0  0  0  0  0  0  0
   -1.1382    7.2849   27.5718 C   0  0  0  0  0  0  0  0  0  0  0  0
   -0.3785    5.8550   28.1422 Cl  0  0  0  0  0  0  0  0  0  0  0  0
   -0.5480    8.0550   26.1874 S   0  0  0  0  0  0  0  0  0  0  0  0
   -5.2429    9.3035   20.8748 C   0  0  0  0  0  0  0  0  0  0  0  0
   -5.1288    9.0605   19.3649 C   0  0  0  0  0  0  0  0  0  0  0  0
   -4.9965    7.5745   19.0286 C   0  0  0  0  0  0  0  0  0  0  0  0
   -5.9929    7.4558   16.7607 C   0  0  0  0  0  0  0  0  0  0  0  0
   -6.1848    7.0129   18.2171 N   0  0  0  0  0  0  0  0  0  0  0  0
   -7.5156    7.5720   18.7076 C   0  0  0  0  0  0  0  0  0  0  0  0
   -6.2227    5.4902   18.2529 C   0  0  0  0  0  0  0  0  0  0  0  0
 29 30  1  0
 30 31  1  0
 30 32  1  0
 30 28  1  0
 28 27  1  0
 27 26  1  0
 26  1  1  0
  1  2  1  0
  2  3  2  0
  4  2  1  0
  4  5  1  0
  5  6  1  0
  6  7  2  0
  5  8  1  0
  8 14  1  0
 14 15  1  0
 15 16  2  0
 16 20  1  0
 20 21  2  0
 21 22  1  0
 22 23  2  0
 23 24  1  0
 23 25  1  0
 16 17  1  0
 17 18  1  0
 18 19  1  0
  8  9  1  0
  9 10  1  0
 10 11  1  0
 11 12  1  0
 13 12  1  0
  6  1  1  0
 18 14  2  0
 13  9  1  0
 13  4  1  0
 25 20  1  0
M  CHG 1  30   1
M  END
> <minimizedAffinity>
-8.94272

> <CNNscore>
0.9809392691

> <CNNaffinity>
8.3244895935

> <CNN_VS>
8.1658191681

> <CNNaffinity_variance>
0.1252482533

$$$$



 32 36  0  0  0  0  0  0  0  0999 V2000
   -4.5863   11.3191   20.6670 N   0  0  0  0  0  0  0  0  0  0  0  0
   -3.9712   12.0418   19.6917 C   0  0  0  0  0  0  0  0  0  0  0  0
   -4.5297   12.5475   18.7280 O   0  0  0  0  0  0  0  0  0  0  0  0
   -2.4865   12.0427   19.9309 C   0  0  0  0  0  0  0  0  0  0  0  0
   -2.2983   11.1061   21.1310 C   0  0  0  0  0  0  0  0  0  0  0  0
   -3.6908   10.6091   21.4099 C   0  0  0  0  0  0  0  0  0  0  0  0
   -3.9672    9.6674   22.1380 O   0  0  0  0  0  0  0  0  0  0  0  0
   -1.6737   11.9737   22.2241 C   0  0  0  0  0  0  0  0  0  0  0  0
   -2.0501   13.3557   21.8579 N   0  0  0  0  0  0  0  0  0  0  0  0
   -1.0843   14.3643   22.3202 C   0  0  0  0  0  0  0  0  0  0  0  0
   -0.0797   14.5767   21.1929 C   0  0  0  0  0  0  0  0  0  0  0  0
   -0.5747   13.7266   20.0341 C   0  0  0  0  0  0  0  0  0  0  0  0
   -2.0245   13.4152   20.3863 C   0  0  0  0  0  0  0  0  0  0  0  0
   -2.0605   11.6567   23.6274 C   0  0  0  0  0  0  0  0  0  0  0  0
   -1.6862   10.4586   24.2048 N   0  0  0  0  0  0  0  0  0  0  0  0
   -2.1814   10.5087   25.4331 C   0  0  0  0  0  0  0  0  0  0  0  0
   -2.8625   11.6727   25.6976 O   0  0  0  0  0  0  0  0  0  0  0  0
   -2.7755   12.3897   24.5474 C   0  0  0  0  0  0  0  0  0  0  0  0
   -3.3220   13.5972   24.3485 F   0  0  0  0  0  0  0  0  0  0  0  0
   -2.0180    9.4459   26.3870 C   0  0  0  0  0  0  0  0  0  0  0  0
   -2.7933    9.2049   27.5087 C   0  0  0  0  0  0  0  0  0  0  0  0
   -2.3538    8.0605   28.2407 C   0  0  0  0  0  0  0  0  0  0  0  0
   -1.2636    7.4857   27.6423 C   0  0  0  0  0  0  0  0  0  0  0  0
   -0.4125    6.0962   28.1828 Cl  0  0  0  0  0  0  0  0  0  0  0  0
   -0.7655    8.2822   26.2367 S   0  0  0  0  0  0  0  0  0  0  0  0
   -6.0237   11.1533   20.7755 C   0  0  0  0  0  0  0  0  0  0  0  0
   -6.5294    9.7663   20.3602 C   0  0  0  0  0  0  0  0  0  0  0  0
   -6.8193    9.6836   18.8609 C   0  0  0  0  0  0  0  0  0  0  0  0
   -7.5578    7.3634   18.3904 C   0  0  0  0  0  0  0  0  0  0  0  0
   -6.3918    8.3456   18.2182 N   0  0  0  0  0  0  0  0  0  0  0  0
   -5.1707    7.7528   18.9122 C   0  0  0  0  0  0  0  0  0  0  0  0
   -6.1120    8.4995   16.7284 C   0  0  0  0  0  0  0  0  0  0  0  0
 29 30  1  0
 30 31  1  0
 30 32  1  0
 30 28  1  0
 28 27  1  0
 27 26  1  0
 26  1  1  0
  1  2  1  0
  2  3  2  0
  4  2  1  0
  4  5  1  0
  5  6  1  0
  6  7  2  0
  5  8  1  0
  8 14  1  0
 14 15  1  0
 15 16  2  0
 16 20  1  0
 20 21  2  0
 21 22  1  0
 22 23  2  0
 23 24  1  0
 23 25  1  0
 16 17  1  0
 17 18  1  0
 18 19  1  0
  8  9  1  0
  9 10  1  0
 10 11  1  0
 11 12  1  0
 13 12  1  0
  6  1  1  0
 18 14  2  0
 13  9  1  0
 13  4  1  0
 25 20  1  0
M  CHG 1  30   1
M  END
> <minimizedAffinity>
-8.14503

> <CNNscore>
0.9580315351

> <CNNaffinity>
7.9845561981

> <CNN_VS>
7.6494565010

> <CNNaffinity_variance>
0.2508175373

$$$$



 32 36  0  0  0  0  0  0  0  0999 V2000
   -6.3530   11.4754   21.3675 N   0  0  0  0  0  0  0  0  0  0  0  0
   -7.4006   12.2843   21.6839 C   0  0  0  0  0  0  0  0  0  0  0  0
   -8.5820   11.9891   21.5674 O   0  0  0  0  0  0  0  0  0  0  0  0
   -6.8824   13.6304   22.1092 C   0  0  0  0  0  0  0  0  0  0  0  0
   -5.3683   13.5400   21.8804 C   0  0  0  0  0  0  0  0  0  0  0  0
   -5.1854   12.1730   21.2791 C   0  0  0  0  0  0  0  0  0  0  0  0
   -4.1662   11.7770   20.7335 O   0  0  0  0  0  0  0  0  0  0  0  0
   -4.7402   13.7463   23.2591 C   0  0  0  0  0  0  0  0  0  0  0  0
   -5.8103   13.3784   24.2105 N   0  0  0  0  0  0  0  0  0  0  0  0
   -5.7111   14.0810   25.4989 C   0  0  0  0  0  0  0  0  0  0  0  0
   -6.5522   15.3480   25.3876 C   0  0  0  0  0  0  0  0  0  0  0  0
   -7.2168   15.2828   24.0221 C   0  0  0  0  0  0  0  0  0  0  0  0
   -7.0757   13.8244   23.6025 C   0  0  0  0  0  0  0  0  0  0  0  0
   -3.4827   12.9972   23.5361 C   0  0  0  0  0  0  0  0  0  0  0  0
   -3.4796   11.9324   24.4166 N   0  0  0  0  0  0  0  0  0  0  0  0
   -2.2254   11.5042   24.4210 C   0  0  0  0  0  0  0  0  0  0  0  0
   -1.4008   12.2280   23.5934 O   0  0  0  0  0  0  0  0  0  0  0  0
   -2.2103   13.1670   23.0389 C   0  0  0  0  0  0  0  0  0  0  0  0
   -1.8157   14.1108   22.1730 F   0  0  0  0  0  0  0  0  0  0  0  0
   -1.7805   10.3926   25.2165 C   0  0  0  0  0  0  0  0  0  0  0  0
   -0.6819    9.5839   24.9798 C   0  0  0  0  0  0  0  0  0  0  0  0
   -0.5270    8.5688   25.9720 C   0  0  0  0  0  0  0  0  0  0  0  0
   -1.5165    8.6520   26.9159 C   0  0  0  0  0  0  0  0  0  0  0  0
   -1.7170    7.6321   28.2821 Cl  0  0  0  0  0  0  0  0  0  0  0  0
   -2.6119    9.9095   26.6381 S   0  0  0  0  0  0  0  0  0  0  0  0
   -6.4866   10.0873   20.9665 C   0  0  0  0  0  0  0  0  0  0  0  0
   -6.5205    9.8723   19.4484 C   0  0  0  0  0  0  0  0  0  0  0  0
   -5.4956    8.8338   18.9903 C   0  0  0  0  0  0  0  0  0  0  0  0
   -5.9904    8.0498   16.6901 C   0  0  0  0  0  0  0  0  0  0  0  0
   -6.1080    7.6748   18.1733 N   0  0  0  0  0  0  0  0  0  0  0  0
   -7.5857    7.4797   18.4936 C   0  0  0  0  0  0  0  0  0  0  0  0
   -5.3569    6.3683   18.3974 C   0  0  0  0  0  0  0  0  0  0  0  0
 29 30  1  0
 30 31  1  0
 30 32  1  0
 30 28  1  0
 28 27  1  0
 27 26  1  0
 26  1  1  0
  1  2  1  0
  2  3  2  0
  4  2  1  0
  4  5  1  0
  5  6  1  0
  6  7  2  0
  5  8  1  0
  8 14  1  0
 14 15  1  0
 15 16  2  0
 16 20  1  0
 20 21  2  0
 21 22  1  0
 22 23  2  0
 23 24  1  0
 23 25  1  0
 16 17  1  0
 17 18  1  0
 18 19  1  0
  8  9  1  0
  9 10  1  0
 10 11  1  0
 11 12  1  0
 13 12  1  0
  6  1  1  0
 18 14  2  0
 13  9  1  0
 13  4  1  0
 25 20  1  0
M  CHG 1  30   1
M  END
> <minimizedAffinity>
-7.66100

> <CNNscore>
0.7934213281

> <CNNaffinity>
7.2487602234

> <CNN_VS>
5.7513208389

> <CNNaffinity_variance>
0.0442199856

$$$$



 32 36  0  0  0  0  0  0  0  0999 V2000
   -5.3448   10.8985   19.1714 N   0  0  0  0  0  0  0  0  0  0  0  0
   -4.6324    9.8124   19.5777 C   0  0  0  0  0  0  0  0  0  0  0  0
   -3.9420    9.7568   20.5859 O   0  0  0  0  0  0  0  0  0  0  0  0
   -4.7492    8.7236   18.5469 C   0  0  0  0  0  0  0  0  0  0  0  0
   -5.5411    9.3711   17.4039 C   0  0  0  0  0  0  0  0  0  0  0  0
   -5.7342   10.7887   17.8698 C   0  0  0  0  0  0  0  0  0  0  0  0
   -6.1157   11.7126   17.1669 O   0  0  0  0  0  0  0  0  0  0  0  0
   -6.8162    8.5371   17.2753 C   0  0  0  0  0  0  0  0  0  0  0  0
   -6.9714    7.8945   18.5976 N   0  0  0  0  0  0  0  0  0  0  0  0
   -7.6784    6.6060   18.5397 C   0  0  0  0  0  0  0  0  0  0  0  0
   -6.6213    5.5182   18.3833 C   0  0  0  0  0  0  0  0  0  0  0  0
   -5.2813    6.2315   18.4605 C   0  0  0  0  0  0  0  0  0  0  0  0
   -5.6104    7.5886   19.0712 C   0  0  0  0  0  0  0  0  0  0  0  0
   -8.0515    9.2675   16.8754 C   0  0  0  0  0  0  0  0  0  0  0  0
   -8.9503    9.7017   17.8307 N   0  0  0  0  0  0  0  0  0  0  0  0
   -9.9081   10.3045   17.1409 C   0  0  0  0  0  0  0  0  0  0  0  0
   -9.6916   10.2911   15.7839 O   0  0  0  0  0  0  0  0  0  0  0  0
   -8.5128    9.6341   15.6312 C   0  0  0  0  0  0  0  0  0  0  0  0
   -7.9228    9.3720   14.4568 F   0  0  0  0  0  0  0  0  0  0  0  0
  -11.0563   10.9090   17.7595 C   0  0  0  0  0  0  0  0  0  0  0  0
  -11.0980   11.5697   18.9756 C   0  0  0  0  0  0  0  0  0  0  0  0
  -12.4048   12.0507   19.2913 C   0  0  0  0  0  0  0  0  0  0  0  0
  -13.2962   11.7316   18.3010 C   0  0  0  0  0  0  0  0  0  0  0  0
  -14.9702   12.1107   18.2689 Cl  0  0  0  0  0  0  0  0  0  0  0  0
  -12.6031   10.8785   17.0165 S   0  0  0  0  0  0  0  0  0  0  0  0
   -5.4943   12.1136   19.9502 C   0  0  0  0  0  0  0  0  0  0  0  0
   -5.9939   11.8848   21.3821 C   0  0  0  0  0  0  0  0  0  0  0  0
   -5.9364   13.1605   22.2234 C   0  0  0  0  0  0  0  0  0  0  0  0
   -5.6143   13.2114   24.6818 C   0  0  0  0  0  0  0  0  0  0  0  0
   -4.8721   13.1197   23.3421 N   0  0  0  0  0  0  0  0  0  0  0  0
   -3.9155   14.3034   23.2521 C   0  0  0  0  0  0  0  0  0  0  0  0
   -4.0816   11.8174   23.3212 C   0  0  0  0  0  0  0  0  0  0  0  0
 29 30  1  0
 30 31  1  0
 30 32  1  0
 30 28  1  0
 28 27  1  0
 27 26  1  0
 26  1  1  0
  1  2  1  0
  2  3  2  0
  4  2  1  0
  4  5  1  0
  5  6  1  0
  6  7  2  0
  5  8  1  0
  8 14  1  0
 14 15  1  0
 15 16  2  0
 16 20  1  0
 20 21  2  0
 21 22  1  0
 22 23  2  0
 23 24  1  0
 23 25  1  0
 16 17  1  0
 17 18  1  0
 18 19  1  0
  8  9  1  0
  9 10  1  0
 10 11  1  0
 11 12  1  0
 13 12  1  0
  6  1  1  0
 18 14  2  0
 13  9  1  0
 13  4  1  0
 25 20  1  0
M  CHG 1  30   1
M  END
> <minimizedAffinity>
-5.86378

> <CNNscore>
0.5385740995

> <CNNaffinity>
6.8897781372

> <CNN_VS>
3.7106561661

> <CNNaffinity_variance>
0.2207380533

$$$$



 32 36  0  0  0  0  0  0  0  0999 V2000
   -5.7137   10.8142   18.9855 N   0  0  0  0  0  0  0  0  0  0  0  0
   -5.0962    9.7798   19.6184 C   0  0  0  0  0  0  0  0  0  0  0  0
   -4.6864    9.7996   20.7709 O   0  0  0  0  0  0  0  0  0  0  0  0
   -4.9104    8.6420   18.6528 C   0  0  0  0  0  0  0  0  0  0  0  0
   -5.4020    9.2023   17.3122 C   0  0  0  0  0  0  0  0  0  0  0  0
   -5.7521   10.6295   17.6356 C   0  0  0  0  0  0  0  0  0  0  0  0
   -5.9688   11.5034   16.8095 O   0  0  0  0  0  0  0  0  0  0  0  0
   -6.5747    8.3082   16.9083 C   0  0  0  0  0  0  0  0  0  0  0  0
   -7.0442    7.7190   18.1803 N   0  0  0  0  0  0  0  0  0  0  0  0
   -7.6723    6.3994   18.0143 C   0  0  0  0  0  0  0  0  0  0  0  0
   -6.5772    5.3532   18.1919 C   0  0  0  0  0  0  0  0  0  0  0  0
   -5.3248    6.1275   18.5693 C   0  0  0  0  0  0  0  0  0  0  0  0
   -5.8417    7.4947   19.0011 C   0  0  0  0  0  0  0  0  0  0  0  0
   -7.6879    8.9650   16.1676 C   0  0  0  0  0  0  0  0  0  0  0  0
   -8.7962    9.4392   16.8425 N   0  0  0  0  0  0  0  0  0  0  0  0
   -9.5686    9.9565   15.8978 C   0  0  0  0  0  0  0  0  0  0  0  0
   -9.0319    9.8487   14.6372 O   0  0  0  0  0  0  0  0  0  0  0  0
   -7.8416    9.2219   14.8239 C   0  0  0  0  0  0  0  0  0  0  0  0
   -6.9827    8.8923   13.8492 F   0  0  0  0  0  0  0  0  0  0  0  0
  -10.8404   10.5669   16.1736 C   0  0  0  0  0  0  0  0  0  0  0  0
  -12.0886    9.9758   16.0750 C   0  0  0  0  0  0  0  0  0  0  0  0
  -13.1455   10.8699   16.4249 C   0  0  0  0  0  0  0  0  0  0  0  0
  -12.6515   12.0998   16.7716 C   0  0  0  0  0  0  0  0  0  0  0  0
  -13.5642   13.4705   17.2566 Cl  0  0  0  0  0  0  0  0  0  0  0  0
  -10.9659   12.1996   16.6875 S   0  0  0  0  0  0  0  0  0  0  0  0
   -6.0958   12.0551   19.6332 C   0  0  0  0  0  0  0  0  0  0  0  0
   -7.5933   12.1659   19.9452 C   0  0  0  0  0  0  0  0  0  0  0  0
   -7.9285   11.6610   21.3492 C   0  0  0  0  0  0  0  0  0  0  0  0
   -9.7887   10.6518   20.0563 C   0  0  0  0  0  0  0  0  0  0  0  0
   -9.0032   10.5517   21.3705 N   0  0  0  0  0  0  0  0  0  0  0  0
   -9.9850   10.7414   22.5212 C   0  0  0  0  0  0  0  0  0  0  0  0
   -8.3797    9.1638   21.4506 C   0  0  0  0  0  0  0  0  0  0  0  0
 29 30  1  0
 30 31  1  0
 30 32  1  0
 30 28  1  0
 28 27  1  0
 27 26  1  0
 26  1  1  0
  1  2  1  0
  2  3  2  0
  4  2  1  0
  4  5  1  0
  5  6  1  0
  6  7  2  0
  5  8  1  0
  8 14  1  0
 14 15  1  0
 15 16  2  0
 16 20  1  0
 20 21  2  0
 21 22  1  0
 22 23  2  0
 23 24  1  0
 23 25  1  0
 16 17  1  0
 17 18  1  0
 18 19  1  0
  8  9  1  0
  9 10  1  0
 10 11  1  0
 11 12  1  0
 13 12  1  0
  6  1  1  0
 18 14  2  0
 13  9  1  0
 13  4  1  0
 25 20  1  0
M  CHG 1  30   1
M  END
> <minimizedAffinity>
-5.88273

> <CNNscore>
0.5345028639

> <CNNaffinity>
6.6239643097

> <CNN_VS>
3.5405278206

> <CNNaffinity_variance>
0.0567103960

$$$$



 32 36  0  0  0  0  0  0  0  0999 V2000
   -5.8506   10.3932   19.6671 N   0  0  0  0  0  0  0  0  0  0  0  0
   -5.4596    9.1982   20.1877 C   0  0  0  0  0  0  0  0  0  0  0  0
   -5.3326    8.9541   21.3797 O   0  0  0  0  0  0  0  0  0  0  0  0
   -5.1164    8.2536   19.0691 C   0  0  0  0  0  0  0  0  0  0  0  0
   -5.2454    9.1084   17.8020 C   0  0  0  0  0  0  0  0  0  0  0  0
   -5.5802   10.4755   18.3337 C   0  0  0  0  0  0  0  0  0  0  0  0
   -5.5459   11.5093   17.6830 O   0  0  0  0  0  0  0  0  0  0  0  0
   -6.3387    8.4348   16.9720 C   0  0  0  0  0  0  0  0  0  0  0  0
   -7.1276    7.6648   17.9571 N   0  0  0  0  0  0  0  0  0  0  0  0
   -7.7728    6.4739   17.3835 C   0  0  0  0  0  0  0  0  0  0  0  0
   -6.8118    5.3052   17.5727 C   0  0  0  0  0  0  0  0  0  0  0  0
   -5.6417    5.8586   18.3697 C   0  0  0  0  0  0  0  0  0  0  0  0
   -6.1672    7.1638   18.9554 C   0  0  0  0  0  0  0  0  0  0  0  0
   -7.2067    9.3334   16.1605 C   0  0  0  0  0  0  0  0  0  0  0  0
   -8.4425    9.7304   16.6338 N   0  0  0  0  0  0  0  0  0  0  0  0
   -8.9313   10.5121   15.6816 C   0  0  0  0  0  0  0  0  0  0  0  0
   -8.0872   10.6517   14.6062 O   0  0  0  0  0  0  0  0  0  0  0  0
   -6.9998    9.9027   14.9244 C   0  0  0  0  0  0  0  0  0  0  0  0
   -5.9237    9.7353   14.1432 F   0  0  0  0  0  0  0  0  0  0  0  0
  -10.2181   11.1460   15.7730 C   0  0  0  0  0  0  0  0  0  0  0  0
  -11.4270   10.6505   15.3144 C   0  0  0  0  0  0  0  0  0  0  0  0
  -12.5141   11.5405   15.5693 C   0  0  0  0  0  0  0  0  0  0  0  0
  -12.0806   12.6722   16.2083 C   0  0  0  0  0  0  0  0  0  0  0  0
  -13.0461   14.0033   16.7014 Cl  0  0  0  0  0  0  0  0  0  0  0  0
  -10.4164   12.6855   16.5054 S   0  0  0  0  0  0  0  0  0  0  0  0
   -6.3035   11.5198   20.4614 C   0  0  0  0  0  0  0  0  0  0  0  0
   -5.1802   12.2642   21.1938 C   0  0  0  0  0  0  0  0  0  0  0  0
   -5.4354   12.3561   22.6988 C   0  0  0  0  0  0  0  0  0  0  0  0
   -4.5725   12.2712   25.0223 C   0  0  0  0  0  0  0  0  0  0  0  0
   -4.1464   12.3383   23.5498 N   0  0  0  0  0  0  0  0  0  0  0  0
   -3.3257   13.6081   23.3548 C   0  0  0  0  0  0  0  0  0  0  0  0
   -3.2861   11.1184   23.2447 C   0  0  0  0  0  0  0  0  0  0  0  0
 29 30  1  0
 30 31  1  0
 30 32  1  0
 30 28  1  0
 28 27  1  0
 27 26  1  0
 26  1  1  0
  1  2  1  0
  2  3  2  0
  4  2  1  0
  4  5  1  0
  5  6  1  0
  6  7  2  0
  5  8  1  0
  8 14  1  0
 14 15  1  0
 15 16  2  0
 16 20  1  0
 20 21  2  0
 21 22  1  0
 22 23  2  0
 23 24  1  0
 23 25  1  0
 16 17  1  0
 17 18  1  0
 18 19  1  0
  8  9  1  0
  9 10  1  0
 10 11  1  0
 11 12  1  0
 13 12  1  0
  6  1  1  0
 18 14  2  0
 13  9  1  0
 13  4  1  0
 25 20  1  0
M  CHG 1  30   1
M  END
> <minimizedAffinity>
-6.09426

> <CNNscore>
0.4912527204

> <CNNaffinity>
7.0237860680

> <CNN_VS>
3.4504539967

> <CNNaffinity_variance>
0.3184364736

$$$$



 32 36  0  0  0  0  0  0  0  0999 V2000
   -5.0788   10.9908   20.5319 N   0  0  0  0  0  0  0  0  0  0  0  0
   -5.8773   12.0406   20.1965 C   0  0  0  0  0  0  0  0  0  0  0  0
   -7.0789   11.9729   19.9775 O   0  0  0  0  0  0  0  0  0  0  0  0
   -5.0377   13.2788   20.0443 C   0  0  0  0  0  0  0  0  0  0  0  0
   -3.5976   12.7808   20.2202 C   0  0  0  0  0  0  0  0  0  0  0  0
   -3.7582   11.2938   20.3843 C   0  0  0  0  0  0  0  0  0  0  0  0
   -2.8495   10.4790   20.3241 O   0  0  0  0  0  0  0  0  0  0  0  0
   -3.0603   13.5274   21.4417 C   0  0  0  0  0  0  0  0  0  0  0  0
   -4.2701   13.9194   22.1957 N   0  0  0  0  0  0  0  0  0  0  0  0
   -4.0890   15.1425   22.9924 C   0  0  0  0  0  0  0  0  0  0  0  0
   -4.5228   16.3164   22.1214 C   0  0  0  0  0  0  0  0  0  0  0  0
   -5.0559   15.7020   20.8373 C   0  0  0  0  0  0  0  0  0  0  0  0
   -5.2983   14.2394   21.1906 C   0  0  0  0  0  0  0  0  0  0  0  0
   -2.0966   12.7870   22.3032 C   0  0  0  0  0  0  0  0  0  0  0  0
   -2.5489   11.9854   23.3336 N   0  0  0  0  0  0  0  0  0  0  0  0
   -1.4486   11.4849   23.8772 C   0  0  0  0  0  0  0  0  0  0  0  0
   -0.2958   11.9127   23.2634 O   0  0  0  0  0  0  0  0  0  0  0  0
   -0.7214   12.7335   22.2685 C   0  0  0  0  0  0  0  0  0  0  0  0
    0.0777   13.3940   21.4192 F   0  0  0  0  0  0  0  0  0  0  0  0
   -1.4687   10.5852   24.9980 C   0  0  0  0  0  0  0  0  0  0  0  0
   -0.4590    9.7254   25.3962 C   0  0  0  0  0  0  0  0  0  0  0  0
   -0.8101    8.9706   26.5562 C   0  0  0  0  0  0  0  0  0  0  0  0
   -2.0714    9.2905   26.9850 C   0  0  0  0  0  0  0  0  0  0  0  0
   -2.8927    8.6250   28.3377 Cl  0  0  0  0  0  0  0  0  0  0  0  0
   -2.8309   10.4648   26.0351 S   0  0  0  0  0  0  0  0  0  0  0  0
   -5.5652    9.6520   20.8084 C   0  0  0  0  0  0  0  0  0  0  0  0
   -5.3079    8.6446   19.6811 C   0  0  0  0  0  0  0  0  0  0  0  0
   -6.5899    7.9422   19.2320 C   0  0  0  0  0  0  0  0  0  0  0  0
   -5.8043    8.1112   16.8858 C   0  0  0  0  0  0  0  0  0  0  0  0
   -6.4389    7.1598   17.9087 N   0  0  0  0  0  0  0  0  0  0  0  0
   -7.7900    6.7135   17.3614 C   0  0  0  0  0  0  0  0  0  0  0  0
   -5.5249    5.9513   18.0692 C   0  0  0  0  0  0  0  0  0  0  0  0
 29 30  1  0
 30 31  1  0
 30 32  1  0
 30 28  1  0
 28 27  1  0
 27 26  1  0
 26  1  1  0
  1  2  1  0
  2  3  2  0
  4  2  1  0
  4  5  1  0
  5  6  1  0
  6  7  2  0
  5  8  1  0
  8 14  1  0
 14 15  1  0
 15 16  2  0
 16 20  1  0
 20 21  2  0
 21 22  1  0
 22 23  2  0
 23 24  1  0
 23 25  1  0
 16 17  1  0
 17 18  1  0
 18 19  1  0
  8  9  1  0
  9 10  1  0
 10 11  1  0
 11 12  1  0
 13 12  1  0
  6  1  1  0
 18 14  2  0
 13  9  1  0
 13  4  1  0
 25 20  1  0
M  CHG 1  30   1
M  END
> <minimizedAffinity>
-7.88300

> <CNNscore>
0.4670676589

> <CNNaffinity>
7.1137223244

> <CNN_VS>
3.3225896358

> <CNNaffinity_variance>
0.0043239719

$$$$



 32 36  0  0  0  0  0  0  0  0999 V2000
   -4.9782   11.0247   20.5325 N   0  0  0  0  0  0  0  0  0  0  0  0
   -4.1860    9.9395   20.3161 C   0  0  0  0  0  0  0  0  0  0  0  0
   -3.2033    9.6382   20.9794 O   0  0  0  0  0  0  0  0  0  0  0  0
   -4.6492    9.2209   19.0789 C   0  0  0  0  0  0  0  0  0  0  0  0
   -5.7643   10.1139   18.5205 C   0  0  0  0  0  0  0  0  0  0  0  0
   -5.7751   11.2900   19.4590 C   0  0  0  0  0  0  0  0  0  0  0  0
   -6.3544   12.3462   19.2539 O   0  0  0  0  0  0  0  0  0  0  0  0
   -7.0215    9.2438   18.5351 C   0  0  0  0  0  0  0  0  0  0  0  0
   -6.7417    8.2088   19.5529 N   0  0  0  0  0  0  0  0  0  0  0  0
   -7.4452    6.9413   19.3035 C   0  0  0  0  0  0  0  0  0  0  0  0
   -6.5125    6.0631   18.4765 C   0  0  0  0  0  0  0  0  0  0  0  0
   -5.2123    6.8415   18.3564 C   0  0  0  0  0  0  0  0  0  0  0  0
   -5.3049    7.9021   19.4469 C   0  0  0  0  0  0  0  0  0  0  0  0
   -8.3100    9.9409   18.8056 C   0  0  0  0  0  0  0  0  0  0  0  0
   -8.8822    9.8950   20.0624 N   0  0  0  0  0  0  0  0  0  0  0  0
   -9.9925   10.6103   19.9519 C   0  0  0  0  0  0  0  0  0  0  0  0
  -10.1850   11.1243   18.6920 O   0  0  0  0  0  0  0  0  0  0  0  0
   -9.1120   10.6947   17.9788 C   0  0  0  0  0  0  0  0  0  0  0  0
   -8.8971   10.9494   16.6807 F   0  0  0  0  0  0  0  0  0  0  0  0
  -10.8998   10.8214   21.0466 C   0  0  0  0  0  0  0  0  0  0  0  0
  -10.6427   10.6262   22.3931 C   0  0  0  0  0  0  0  0  0  0  0  0
  -11.7696   10.9332   23.2145 C   0  0  0  0  0  0  0  0  0  0  0  0
  -12.8317   11.3458   22.4538 C   0  0  0  0  0  0  0  0  0  0  0  0
  -14.3821   11.8105   23.0262 Cl  0  0  0  0  0  0  0  0  0  0  0  0
  -12.5056   11.3728   20.7952 S   0  0  0  0  0  0  0  0  0  0  0  0
   -4.8476   11.9158   21.6701 C   0  0  0  0  0  0  0  0  0  0  0  0
   -3.7986   13.0195   21.4866 C   0  0  0  0  0  0  0  0  0  0  0  0
   -2.6200   12.8601   22.4479 C   0  0  0  0  0  0  0  0  0  0  0  0
   -1.5193   12.7385   20.2289 C   0  0  0  0  0  0  0  0  0  0  0  0
   -1.2524   12.7402   21.7398 N   0  0  0  0  0  0  0  0  0  0  0  0
   -0.5475   11.4358   22.0946 C   0  0  0  0  0  0  0  0  0  0  0  0
   -0.3442   13.9198   22.0639 C   0  0  0  0  0  0  0  0  0  0  0  0
 29 30  1  0
 30 31  1  0
 30 32  1  0
 30 28  1  0
 28 27  1  0
 27 26  1  0
 26  1  1  0
  1  2  1  0
  2  3  2  0
  4  2  1  0
  4  5  1  0
  5  6  1  0
  6  7  2  0
  5  8  1  0
  8 14  1  0
 14 15  1  0
 15 16  2  0
 16 20  1  0
 20 21  2  0
 21 22  1  0
 22 23  2  0
 23 24  1  0
 23 25  1  0
 16 17  1  0
 17 18  1  0
 18 19  1  0
  8  9  1  0
  9 10  1  0
 10 11  1  0
 11 12  1  0
 13 12  1  0
  6  1  1  0
 18 14  2  0
 13  9  1  0
 13  4  1  0
 25 20  1  0
M  CHG 1  30   1
M  END
> <minimizedAffinity>
-6.44248

> <CNNscore>
0.4437974989

> <CNNaffinity>
6.8418354988

> <CNN_VS>
3.0363895893

> <CNNaffinity_variance>
0.1492436081

$$$$



 32 36  0  0  0  0  0  0  0  0999 V2000
   -7.9582   10.0936   16.3924 N   0  0  0  0  0  0  0  0  0  0  0  0
   -8.3928    8.8480   16.0583 C   0  0  0  0  0  0  0  0  0  0  0  0
   -8.8245    8.5206   14.9616 O   0  0  0  0  0  0  0  0  0  0  0  0
   -8.3490    7.9609   17.2718 C   0  0  0  0  0  0  0  0  0  0  0  0
   -7.9374    8.9018   18.4110 C   0  0  0  0  0  0  0  0  0  0  0  0
   -7.8575   10.2477   17.7430 C   0  0  0  0  0  0  0  0  0  0  0  0
   -7.7840   11.3181   18.3277 O   0  0  0  0  0  0  0  0  0  0  0  0
   -6.6140    8.3435   18.9354 C   0  0  0  0  0  0  0  0  0  0  0  0
   -6.0740    7.5548   17.8076 N   0  0  0  0  0  0  0  0  0  0  0  0
   -5.2147    6.4402   18.2351 C   0  0  0  0  0  0  0  0  0  0  0  0
   -6.1067    5.2115   18.3762 C   0  0  0  0  0  0  0  0  0  0  0  0
   -7.4862    5.6481   17.9104 C   0  0  0  0  0  0  0  0  0  0  0  0
   -7.2340    6.9390   17.1405 C   0  0  0  0  0  0  0  0  0  0  0  0
   -5.6216    9.3383   19.4301 C   0  0  0  0  0  0  0  0  0  0  0  0
   -5.4630    9.5572   20.7851 N   0  0  0  0  0  0  0  0  0  0  0  0
   -4.5156   10.4803   20.8673 C   0  0  0  0  0  0  0  0  0  0  0  0
   -4.0413   10.8833   19.6421 O   0  0  0  0  0  0  0  0  0  0  0  0
   -4.7483   10.1509   18.7430 C   0  0  0  0  0  0  0  0  0  0  0  0
   -4.6230   10.2352   17.4113 F   0  0  0  0  0  0  0  0  0  0  0  0
   -4.0383   11.0028   22.1185 C   0  0  0  0  0  0  0  0  0  0  0  0
   -2.9609   10.5444   22.8576 C   0  0  0  0  0  0  0  0  0  0  0  0
   -2.7618   11.2948   24.0560 C   0  0  0  0  0  0  0  0  0  0  0  0
   -3.6984   12.2878   24.1729 C   0  0  0  0  0  0  0  0  0  0  0  0
   -3.8341   13.4220   25.4545 Cl  0  0  0  0  0  0  0  0  0  0  0  0
   -4.7963   12.3365   22.8881 S   0  0  0  0  0  0  0  0  0  0  0  0
   -7.8205   11.1891   15.4510 C   0  0  0  0  0  0  0  0  0  0  0  0
   -8.0429   12.5768   16.0647 C   0  0  0  0  0  0  0  0  0  0  0  0
   -8.4571   13.6109   15.0169 C   0  0  0  0  0  0  0  0  0  0  0  0
   -6.5458   15.1317   14.5880 C   0  0  0  0  0  0  0  0  0  0  0  0
   -7.9060   15.0277   15.2903 N   0  0  0  0  0  0  0  0  0  0  0  0
   -7.6863   15.2684   16.7796 C   0  0  0  0  0  0  0  0  0  0  0  0
   -8.8202   16.1073   14.7247 C   0  0  0  0  0  0  0  0  0  0  0  0
 29 30  1  0
 30 31  1  0
 30 32  1  0
 30 28  1  0
 28 27  1  0
 27 26  1  0
 26  1  1  0
  1  2  1  0
  2  3  2  0
  4  2  1  0
  4  5  1  0
  5  6  1  0
  6  7  2  0
  5  8  1  0
  8 14  1  0
 14 15  1  0
 15 16  2  0
 16 20  1  0
 20 21  2  0
 21 22  1  0
 22 23  2  0
 23 24  1  0
 23 25  1  0
 16 17  1  0
 17 18  1  0
 18 19  1  0
  8  9  1  0
  9 10  1  0
 10 11  1  0
 11 12  1  0
 13 12  1  0
  6  1  1  0
 18 14  2  0
 13  9  1  0
 13  4  1  0
 25 20  1  0
M  CHG 1  30   1
M  END
> <minimizedAffinity>
-6.31388

> <CNNscore>
0.4419244826

> <CNNaffinity>
6.8819985390

> <CNN_VS>
3.0413236618

> <CNNaffinity_variance>
0.4172396362

$$$$
