


 26 32  0  0  0  0  0  0  0  0999 V2000
  -41.0759    1.3342  -15.5710 O   0  0  0  0  0  0  0  0  0  0  0  0
  -40.9860    2.5529  -15.7053 C   0  0  0  0  0  0  0  0  0  0  0  0
  -39.6213    3.2050  -15.9032 C   0  0  0  0  0  0  0  0  0  0  0  0
  -39.5806    4.4536  -16.8211 C   0  0  0  0  0  0  0  0  0  0  0  0
  -38.8215    5.4305  -16.0953 O   0  0  0  0  0  0  0  0  0  0  0  0
  -38.4306    6.5688  -16.8510 C   0  0  0  0  0  0  0  0  0  0  0  0
  -39.4862    7.6094  -16.6943 C   0  0  0  0  0  0  0  0  0  0  0  0
  -40.7333    7.4767  -17.1788 C   0  0  0  0  0  0  0  0  0  0  0  0
  -41.8157    8.4974  -16.9122 C   0  0  0  0  0  0  0  0  0  0  0  0
  -43.0298    7.8772  -16.3703 N   0  0  0  0  0  0  0  0  0  0  0  0
  -42.9324    7.6160  -14.9268 C   0  0  0  0  0  0  0  0  0  0  0  0
  -43.6081    6.2736  -14.7118 C   0  0  0  0  0  0  0  0  0  0  0  0
  -43.2788    5.5111  -16.0015 C   0  0  0  0  0  0  0  0  0  0  0  0
  -44.1455    4.2813  -16.1142 C   0  0  0  0  0  0  0  0  0  0  0  0
  -45.5090    4.2104  -16.3707 C   0  0  0  0  0  0  0  0  0  0  0  0
  -46.1225    2.9560  -16.3806 C   0  0  0  0  0  0  0  0  0  0  0  0
  -45.3707    1.7993  -16.1300 C   0  0  0  0  0  0  0  0  0  0  0  0
  -46.2320    0.1141  -16.1486 Br  0  0  0  0  0  0  0  0  0  0  0  0
  -44.0015    1.8692  -15.8703 C   0  0  0  0  0  0  0  0  0  0  0  0
  -43.4047    3.1184  -15.8643 C   0  0  0  0  0  0  0  0  0  0  0  0
  -42.0489    3.4377  -15.6860 N   0  0  0  0  0  0  0  0  0  0  0  0
  -41.8538    4.8745  -15.9352 C   0  0  0  0  0  0  0  0  0  0  0  0
  -40.9983    4.9293  -17.2089 C   0  0  0  0  0  0  0  0  0  0  0  0
  -41.1557    6.2536  -17.9686 C   0  0  0  0  0  0  0  0  0  0  0  0
  -42.6437    6.3669  -18.3359 C   0  0  0  0  0  0  0  0  0  0  0  0
  -43.4390    6.6233  -17.0565 C   0  0  0  0  0  0  0  0  0  0  0  0
  1  2  2  0
  2  3  1  0
  4  3  1  0
  4  5  1  0
  5  6  1  0
  6  7  1  0
  7  8  2  0
  8  9  1  0
  9 10  1  0
 10 11  1  0
 11 12  1  0
 13 12  1  0
 13 14  1  0
 14 15  2  0
 15 16  1  0
 16 17  2  0
 17 18  1  0
 17 19  1  0
 19 20  2  0
 20 21  1  0
 22 21  1  0
 22 23  1  0
 23 24  1  0
 24 25  1  0
 26 25  1  0
 21  2  1  0
 23  4  1  0
 24  8  1  0
 26 10  1  0
 22 13  1  0
 26 13  1  0
 20 14  1  0
M  END
> <minimizedAffinity>
-10.70016

> <CNNscore>
0.9408631325

> <CNNaffinity>
7.7562046051

> <CNN_VS>
7.2975268364

> <CNNaffinity_variance>
0.2428107858

$$$$



 26 32  0  0  0  0  0  0  0  0999 V2000
  -40.9789    1.0743  -15.7008 O   0  0  0  0  0  0  0  0  0  0  0  0
  -41.6358    2.0808  -15.9588 C   0  0  0  0  0  0  0  0  0  0  0  0
  -43.1599    2.0345  -15.9183 C   0  0  0  0  0  0  0  0  0  0  0  0
  -43.8765    3.3255  -15.4464 C   0  0  0  0  0  0  0  0  0  0  0  0
  -44.9126    3.5558  -16.4113 O   0  0  0  0  0  0  0  0  0  0  0  0
  -45.8679    4.5409  -16.0420 C   0  0  0  0  0  0  0  0  0  0  0  0
  -45.4016    5.8544  -16.5703 C   0  0  0  0  0  0  0  0  0  0  0  0
  -44.2984    6.4810  -16.1254 C   0  0  0  0  0  0  0  0  0  0  0  0
  -43.7869    7.7575  -16.7524 C   0  0  0  0  0  0  0  0  0  0  0  0
  -42.3708    7.6553  -17.1220 N   0  0  0  0  0  0  0  0  0  0  0  0
  -42.1715    6.9574  -18.4005 C   0  0  0  0  0  0  0  0  0  0  0  0
  -40.9330    6.1013  -18.2057 C   0  0  0  0  0  0  0  0  0  0  0  0
  -41.0177    5.7036  -16.7265 C   0  0  0  0  0  0  0  0  0  0  0  0
  -39.7004    5.1300  -16.2661 C   0  0  0  0  0  0  0  0  0  0  0  0
  -38.4973    5.7940  -16.0620 C   0  0  0  0  0  0  0  0  0  0  0  0
  -37.3797    5.0491  -15.6797 C   0  0  0  0  0  0  0  0  0  0  0  0
  -37.4787    3.6604  -15.5135 C   0  0  0  0  0  0  0  0  0  0  0  0
  -35.9454    2.6789  -14.9964 Br  0  0  0  0  0  0  0  0  0  0  0  0
  -38.6860    2.9919  -15.7200 C   0  0  0  0  0  0  0  0  0  0  0  0
  -39.7869    3.7415  -16.0978 C   0  0  0  0  0  0  0  0  0  0  0  0
  -41.1068    3.3104  -16.3075 N   0  0  0  0  0  0  0  0  0  0  0  0
  -41.9700    4.4823  -16.5218 C   0  0  0  0  0  0  0  0  0  0  0  0
  -42.8929    4.5072  -15.2952 C   0  0  0  0  0  0  0  0  0  0  0  0
  -43.4522    5.9070  -15.0061 C   0  0  0  0  0  0  0  0  0  0  0  0
  -42.2372    6.8158  -14.7617 C   0  0  0  0  0  0  0  0  0  0  0  0
  -41.5102    7.0183  -16.0904 C   0  0  0  0  0  0  0  0  0  0  0  0
  1  2  2  0
  2  3  1  0
  4  3  1  0
  4  5  1  0
  5  6  1  0
  6  7  1  0
  7  8  2  0
  8  9  1  0
  9 10  1  0
 10 11  1  0
 11 12  1  0
 13 12  1  0
 13 14  1  0
 14 15  2  0
 15 16  1  0
 16 17  2  0
 17 18  1  0
 17 19  1  0
 19 20  2  0
 20 21  1  0
 22 21  1  0
 22 23  1  0
 23 24  1  0
 24 25  1  0
 26 25  1  0
 21  2  1  0
 23  4  1  0
 24  8  1  0
 26 10  1  0
 22 13  1  0
 26 13  1  0
 20 14  1  0
M  END
> <minimizedAffinity>
-10.74078

> <CNNscore>
0.9009688497

> <CNNaffinity>
7.6418190002

> <CNN_VS>
6.8850407600

> <CNNaffinity_variance>
0.1837025136

$$$$



 26 32  0  0  0  0  0  0  0  0999 V2000
  -43.5627    1.4405  -15.9111 O   0  0  0  0  0  0  0  0  0  0  0  0
  -42.7615    2.3676  -15.8116 C   0  0  0  0  0  0  0  0  0  0  0  0
  -41.2794    2.0815  -15.5919 C   0  0  0  0  0  0  0  0  0  0  0  0
  -40.2818    3.0682  -16.2508 C   0  0  0  0  0  0  0  0  0  0  0  0
  -39.3395    3.3960  -15.2202 O   0  0  0  0  0  0  0  0  0  0  0  0
  -38.1788    4.0845  -15.6657 C   0  0  0  0  0  0  0  0  0  0  0  0
  -38.4460    5.5476  -15.5674 C   0  0  0  0  0  0  0  0  0  0  0  0
  -39.3518    6.1868  -16.3280 C   0  0  0  0  0  0  0  0  0  0  0  0
  -39.6815    7.6489  -16.1335 C   0  0  0  0  0  0  0  0  0  0  0  0
  -41.1245    7.8683  -15.9844 N   0  0  0  0  0  0  0  0  0  0  0  0
  -41.5986    7.5887  -14.6212 C   0  0  0  0  0  0  0  0  0  0  0  0
  -42.9458    6.9100  -14.7924 C   0  0  0  0  0  0  0  0  0  0  0  0
  -42.7675    6.1117  -16.0901 C   0  0  0  0  0  0  0  0  0  0  0  0
  -44.1073    5.6398  -16.5985 C   0  0  0  0  0  0  0  0  0  0  0  0
  -45.1312    6.3960  -17.1549 C   0  0  0  0  0  0  0  0  0  0  0  0
  -46.3177    5.7529  -17.5135 C   0  0  0  0  0  0  0  0  0  0  0  0
  -46.4647    4.3738  -17.3067 C   0  0  0  0  0  0  0  0  0  0  0  0
  -48.0859    3.5319  -17.8017 Br  0  0  0  0  0  0  0  0  0  0  0  0
  -45.4379    3.6134  -16.7461 C   0  0  0  0  0  0  0  0  0  0  0  0
  -44.2662    4.2623  -16.3959 C   0  0  0  0  0  0  0  0  0  0  0  0
  -43.0849    3.7110  -15.8737 N   0  0  0  0  0  0  0  0  0  0  0  0
  -42.0463    4.7517  -15.8241 C   0  0  0  0  0  0  0  0  0  0  0  0
  -40.9998    4.2972  -16.8515 C   0  0  0  0  0  0  0  0  0  0  0  0
  -40.1562    5.4614  -17.3887 C   0  0  0  0  0  0  0  0  0  0  0  0
  -41.1407    6.4407  -18.0472 C   0  0  0  0  0  0  0  0  0  0  0  0
  -41.9649    7.1095  -16.9479 C   0  0  0  0  0  0  0  0  0  0  0  0
  1  2  2  0
  2  3  1  0
  4  3  1  0
  4  5  1  0
  5  6  1  0
  6  7  1  0
  7  8  2  0
  8  9  1  0
  9 10  1  0
 10 11  1  0
 11 12  1  0
 13 12  1  0
 13 14  1  0
 14 15  2  0
 15 16  1  0
 16 17  2  0
 17 18  1  0
 17 19  1  0
 19 20  2  0
 20 21  1  0
 22 21  1  0
 22 23  1  0
 23 24  1  0
 24 25  1  0
 26 25  1  0
 21  2  1  0
 23  4  1  0
 24  8  1  0
 26 10  1  0
 22 13  1  0
 26 13  1  0
 20 14  1  0
M  END
> <minimizedAffinity>
-8.82519

> <CNNscore>
0.8661336303

> <CNNaffinity>
7.8648147583

> <CNN_VS>
6.8119807243

> <CNNaffinity_variance>
0.5849111080

$$$$



 26 32  0  0  0  0  0  0  0  0999 V2000
  -45.9352    5.2990  -16.4048 O   0  0  0  0  0  0  0  0  0  0  0  0
  -44.7122    5.2758  -16.2823 C   0  0  0  0  0  0  0  0  0  0  0  0
  -43.9921    3.9581  -16.0147 C   0  0  0  0  0  0  0  0  0  0  0  0
  -42.5841    3.8017  -16.6441 C   0  0  0  0  0  0  0  0  0  0  0  0
  -41.7498    3.3122  -15.5850 O   0  0  0  0  0  0  0  0  0  0  0  0
  -40.4717    2.8457  -15.9951 C   0  0  0  0  0  0  0  0  0  0  0  0
  -39.5165    3.9868  -15.9094 C   0  0  0  0  0  0  0  0  0  0  0  0
  -39.5874    5.0718  -16.7003 C   0  0  0  0  0  0  0  0  0  0  0  0
  -38.6747    6.2629  -16.5204 C   0  0  0  0  0  0  0  0  0  0  0  0
  -39.4279    7.5177  -16.4180 N   0  0  0  0  0  0  0  0  0  0  0  0
  -39.9703    7.7404  -15.0698 C   0  0  0  0  0  0  0  0  0  0  0  0
  -41.3486    8.3405  -15.2819 C   0  0  0  0  0  0  0  0  0  0  0  0
  -41.8264    7.6601  -16.5711 C   0  0  0  0  0  0  0  0  0  0  0  0
  -43.0345    8.3775  -17.1206 C   0  0  0  0  0  0  0  0  0  0  0  0
  -43.0943    9.6334  -17.7115 C   0  0  0  0  0  0  0  0  0  0  0  0
  -44.3394   10.1275  -18.1059 C   0  0  0  0  0  0  0  0  0  0  0  0
  -45.4993    9.3670  -17.9002 C   0  0  0  0  0  0  0  0  0  0  0  0
  -47.1721   10.0654  -18.4442 Br  0  0  0  0  0  0  0  0  0  0  0  0
  -45.4410    8.1062  -17.3050 C   0  0  0  0  0  0  0  0  0  0  0  0
  -44.2007    7.6270  -16.9195 C   0  0  0  0  0  0  0  0  0  0  0  0
  -43.8822    6.3797  -16.3583 N   0  0  0  0  0  0  0  0  0  0  0  0
  -42.4194    6.2448  -16.2786 C   0  0  0  0  0  0  0  0  0  0  0  0
  -42.0840    5.1222  -17.2708 C   0  0  0  0  0  0  0  0  0  0  0  0
  -40.6396    5.2007  -17.7841 C   0  0  0  0  0  0  0  0  0  0  0  0
  -40.5006    6.5658  -18.4763 C   0  0  0  0  0  0  0  0  0  0  0  0
  -40.5306    7.6558  -17.4057 C   0  0  0  0  0  0  0  0  0  0  0  0
  1  2  2  0
  2  3  1  0
  4  3  1  0
  4  5  1  0
  5  6  1  0
  6  7  1  0
  7  8  2  0
  8  9  1  0
  9 10  1  0
 10 11  1  0
 11 12  1  0
 13 12  1  0
 13 14  1  0
 14 15  2  0
 15 16  1  0
 16 17  2  0
 17 18  1  0
 17 19  1  0
 19 20  2  0
 20 21  1  0
 22 21  1  0
 22 23  1  0
 23 24  1  0
 24 25  1  0
 26 25  1  0
 21  2  1  0
 23  4  1  0
 24  8  1  0
 26 10  1  0
 22 13  1  0
 26 13  1  0
 20 14  1  0
M  END
> <minimizedAffinity>
-8.85681

> <CNNscore>
0.8616718650

> <CNNaffinity>
7.9925055504

> <CNN_VS>
6.8869171143

> <CNNaffinity_variance>
0.7527451515

$$$$



 26 32  0  0  0  0  0  0  0  0999 V2000
  -46.3841    5.7392  -17.5073 O   0  0  0  0  0  0  0  0  0  0  0  0
  -45.2373    6.1643  -17.3831 C   0  0  0  0  0  0  0  0  0  0  0  0
  -44.9315    7.6360  -17.6427 C   0  0  0  0  0  0  0  0  0  0  0  0
  -43.8263    8.2758  -16.7639 C   0  0  0  0  0  0  0  0  0  0  0  0
  -42.9739    8.9761  -17.6806 O   0  0  0  0  0  0  0  0  0  0  0  0
  -42.0371    9.8567  -17.0753 C   0  0  0  0  0  0  0  0  0  0  0  0
  -40.7761    9.0970  -16.8421 C   0  0  0  0  0  0  0  0  0  0  0  0
  -40.6760    8.0803  -15.9681 C   0  0  0  0  0  0  0  0  0  0  0  0
  -39.4169    7.2559  -15.8297 C   0  0  0  0  0  0  0  0  0  0  0  0
  -39.6896    5.8189  -15.9438 N   0  0  0  0  0  0  0  0  0  0  0  0
  -39.8141    5.3787  -17.3410 C   0  0  0  0  0  0  0  0  0  0  0  0
  -40.9413    4.3617  -17.3461 C   0  0  0  0  0  0  0  0  0  0  0  0
  -41.8883    4.8908  -16.2615 C   0  0  0  0  0  0  0  0  0  0  0  0
  -42.8977    3.8324  -15.8911 C   0  0  0  0  0  0  0  0  0  0  0  0
  -42.6879    2.6511  -15.1909 C   0  0  0  0  0  0  0  0  0  0  0  0
  -43.7671    1.7850  -15.0034 C   0  0  0  0  0  0  0  0  0  0  0  0
  -45.0302    2.1072  -15.5198 C   0  0  0  0  0  0  0  0  0  0  0  0
  -46.4724    0.9116  -15.2504 Br  0  0  0  0  0  0  0  0  0  0  0  0
  -45.2419    3.2925  -16.2251 C   0  0  0  0  0  0  0  0  0  0  0  0
  -44.1644    4.1433  -16.4034 C   0  0  0  0  0  0  0  0  0  0  0  0
  -44.1399    5.4039  -17.0217 N   0  0  0  0  0  0  0  0  0  0  0  0
  -42.8173    6.0157  -16.8200 C   0  0  0  0  0  0  0  0  0  0  0  0
  -43.0884    7.2215  -15.9091 C   0  0  0  0  0  0  0  0  0  0  0  0
  -41.8490    7.6479  -15.1105 C   0  0  0  0  0  0  0  0  0  0  0  0
  -41.4443    6.4337  -14.2597 C   0  0  0  0  0  0  0  0  0  0  0  0
  -40.8845    5.3575  -15.1889 C   0  0  0  0  0  0  0  0  0  0  0  0
  1  2  2  0
  2  3  1  0
  4  3  1  0
  4  5  1  0
  5  6  1  0
  6  7  1  0
  7  8  2  0
  8  9  1  0
  9 10  1  0
 10 11  1  0
 11 12  1  0
 13 12  1  0
 13 14  1  0
 14 15  2  0
 15 16  1  0
 16 17  2  0
 17 18  1  0
 17 19  1  0
 19 20  2  0
 20 21  1  0
 22 21  1  0
 22 23  1  0
 23 24  1  0
 24 25  1  0
 26 25  1  0
 21  2  1  0
 23  4  1  0
 24  8  1  0
 26 10  1  0
 22 13  1  0
 26 13  1  0
 20 14  1  0
M  END
> <minimizedAffinity>
-8.05332

> <CNNscore>
0.8153475523

> <CNNaffinity>
7.7306613922

> <CNN_VS>
6.3031759262

> <CNNaffinity_variance>
0.4196727276

$$$$



 26 32  0  0  0  0  0  0  0  0999 V2000
  -48.0879    5.0437  -20.7464 O   0  0  0  0  0  0  0  0  0  0  0  0
  -49.2514    5.2462  -21.0876 C   0  0  0  0  0  0  0  0  0  0  0  0
  -50.2184    4.0779  -21.2506 C   0  0  0  0  0  0  0  0  0  0  0  0
  -51.6978    4.3500  -20.8758 C   0  0  0  0  0  0  0  0  0  0  0  0
  -52.4658    3.8293  -21.9696 O   0  0  0  0  0  0  0  0  0  0  0  0
  -53.8630    3.7321  -21.7289 C   0  0  0  0  0  0  0  0  0  0  0  0
  -54.4979    5.0002  -22.1877 C   0  0  0  0  0  0  0  0  0  0  0  0
  -54.2841    6.1898  -21.5987 C   0  0  0  0  0  0  0  0  0  0  0  0
  -54.8530    7.4771  -22.1494 C   0  0  0  0  0  0  0  0  0  0  0  0
  -53.8168    8.5003  -22.3272 N   0  0  0  0  0  0  0  0  0  0  0  0
  -53.0518    8.3169  -23.5692 C   0  0  0  0  0  0  0  0  0  0  0  0
  -51.6147    8.6528  -23.2129 C   0  0  0  0  0  0  0  0  0  0  0  0
  -51.4996    8.1772  -21.7590 C   0  0  0  0  0  0  0  0  0  0  0  0
  -50.2461    8.7315  -21.1284 C   0  0  0  0  0  0  0  0  0  0  0  0
  -49.9742   10.0443  -20.7646 C   0  0  0  0  0  0  0  0  0  0  0  0
  -48.7161   10.3448  -20.2382 C   0  0  0  0  0  0  0  0  0  0  0  0
  -47.7529    9.3368  -20.0895 C   0  0  0  0  0  0  0  0  0  0  0  0
  -46.0565    9.7765  -19.3747 Br  0  0  0  0  0  0  0  0  0  0  0  0
  -48.0239    8.0181  -20.4563 C   0  0  0  0  0  0  0  0  0  0  0  0
  -49.2751    7.7327  -20.9758 C   0  0  0  0  0  0  0  0  0  0  0  0
  -49.7978    6.4873  -21.3603 N   0  0  0  0  0  0  0  0  0  0  0  0
  -51.2244    6.6413  -21.6854 C   0  0  0  0  0  0  0  0  0  0  0  0
  -51.9537    5.8470  -20.5925 C   0  0  0  0  0  0  0  0  0  0  0  0
  -53.3958    6.3265  -20.3778 C   0  0  0  0  0  0  0  0  0  0  0  0
  -53.3034    7.8059  -19.9719 C   0  0  0  0  0  0  0  0  0  0  0  0
  -52.8642    8.6151  -21.1915 C   0  0  0  0  0  0  0  0  0  0  0  0
  1  2  2  0
  2  3  1  0
  4  3  1  0
  4  5  1  0
  5  6  1  0
  6  7  1  0
  7  8  2  0
  8  9  1  0
  9 10  1  0
 10 11  1  0
 11 12  1  0
 13 12  1  0
 13 14  1  0
 14 15  2  0
 15 16  1  0
 16 17  2  0
 17 18  1  0
 17 19  1  0
 19 20  2  0
 20 21  1  0
 22 21  1  0
 22 23  1  0
 23 24  1  0
 24 25  1  0
 26 25  1  0
 21  2  1  0
 23  4  1  0
 24  8  1  0
 26 10  1  0
 22 13  1  0
 26 13  1  0
 20 14  1  0
M  END
> <minimizedAffinity>
-5.38880

> <CNNscore>
0.3522307575

> <CNNaffinity>
5.6999416351

> <CNN_VS>
2.0076947212

> <CNNaffinity_variance>
0.0597931184

$$$$



 26 32  0  0  0  0  0  0  0  0999 V2000
  -38.3373    3.9446  -16.3642 O   0  0  0  0  0  0  0  0  0  0  0  0
  -39.1141    4.8972  -16.3408 C   0  0  0  0  0  0  0  0  0  0  0  0
  -38.6330    6.2903  -16.7339 C   0  0  0  0  0  0  0  0  0  0  0  0
  -39.6635    7.1981  -17.4528 C   0  0  0  0  0  0  0  0  0  0  0  0
  -39.5896    8.4611  -16.7770 O   0  0  0  0  0  0  0  0  0  0  0  0
  -40.2588    9.5311  -17.4302 C   0  0  0  0  0  0  0  0  0  0  0  0
  -41.6521    9.5916  -16.9040 C   0  0  0  0  0  0  0  0  0  0  0  0
  -42.5675    8.6313  -17.1221 C   0  0  0  0  0  0  0  0  0  0  0  0
  -43.9384    8.6637  -16.4868 C   0  0  0  0  0  0  0  0  0  0  0  0
  -44.2470    7.4105  -15.7893 N   0  0  0  0  0  0  0  0  0  0  0  0
  -43.6385    7.3455  -14.4526 C   0  0  0  0  0  0  0  0  0  0  0  0
  -43.1727    5.9098  -14.2892 C   0  0  0  0  0  0  0  0  0  0  0  0
  -42.7639    5.5155  -15.7141 C   0  0  0  0  0  0  0  0  0  0  0  0
  -42.5907    4.0198  -15.8103 C   0  0  0  0  0  0  0  0  0  0  0  0
  -43.5710    3.0362  -15.7743 C   0  0  0  0  0  0  0  0  0  0  0  0
  -43.1767    1.6977  -15.8291 C   0  0  0  0  0  0  0  0  0  0  0  0
  -41.8174    1.3640  -15.9127 C   0  0  0  0  0  0  0  0  0  0  0  0
  -41.3152   -0.4594  -15.9836 Br  0  0  0  0  0  0  0  0  0  0  0  0
  -40.8316    2.3509  -15.9470 C   0  0  0  0  0  0  0  0  0  0  0  0
  -41.2352    3.6740  -15.8931 C   0  0  0  0  0  0  0  0  0  0  0  0
  -40.4445    4.8322  -15.9679 N   0  0  0  0  0  0  0  0  0  0  0  0
  -41.3205    6.0115  -16.0473 C   0  0  0  0  0  0  0  0  0  0  0  0
  -41.0771    6.5748  -17.4546 C   0  0  0  0  0  0  0  0  0  0  0  0
  -42.2573    7.4115  -17.9673 C   0  0  0  0  0  0  0  0  0  0  0  0
  -43.4755    6.4748  -17.9853 C   0  0  0  0  0  0  0  0  0  0  0  0
  -43.8809    6.1814  -16.5415 C   0  0  0  0  0  0  0  0  0  0  0  0
  1  2  2  0
  2  3  1  0
  4  3  1  0
  4  5  1  0
  5  6  1  0
  6  7  1  0
  7  8  2  0
  8  9  1  0
  9 10  1  0
 10 11  1  0
 11 12  1  0
 13 12  1  0
 13 14  1  0
 14 15  2  0
 15 16  1  0
 16 17  2  0
 17 18  1  0
 17 19  1  0
 19 20  2  0
 20 21  1  0
 22 21  1  0
 22 23  1  0
 23 24  1  0
 24 25  1  0
 26 25  1  0
 21  2  1  0
 23  4  1  0
 24  8  1  0
 26 10  1  0
 22 13  1  0
 26 13  1  0
 20 14  1  0
M  END
> <minimizedAffinity>
-7.69284

> <CNNscore>
0.2822336555

> <CNNaffinity>
6.7912764549

> <CNN_VS>
1.9167268276

> <CNNaffinity_variance>
0.0096138548

$$$$



 26 32  0  0  0  0  0  0  0  0999 V2000
  -51.4999   -3.2956  -19.7352 O   0  0  0  0  0  0  0  0  0  0  0  0
  -50.3150   -3.5515  -19.9396 C   0  0  0  0  0  0  0  0  0  0  0  0
  -49.7660   -3.5619  -21.3627 C   0  0  0  0  0  0  0  0  0  0  0  0
  -48.3022   -3.0838  -21.5404 C   0  0  0  0  0  0  0  0  0  0  0  0
  -47.6790   -4.0764  -22.3673 O   0  0  0  0  0  0  0  0  0  0  0  0
  -46.4035   -3.7157  -22.8795 C   0  0  0  0  0  0  0  0  0  0  0  0
  -45.3696   -4.1976  -21.9200 C   0  0  0  0  0  0  0  0  0  0  0  0
  -45.2247   -3.7024  -20.6785 C   0  0  0  0  0  0  0  0  0  0  0  0
  -44.2417   -4.2824  -19.6877 C   0  0  0  0  0  0  0  0  0  0  0  0
  -44.8828   -4.6077  -18.4088 N   0  0  0  0  0  0  0  0  0  0  0  0
  -45.5920   -5.8949  -18.4458 C   0  0  0  0  0  0  0  0  0  0  0  0
  -46.8637   -5.6797  -17.6450 C   0  0  0  0  0  0  0  0  0  0  0  0
  -47.2102   -4.2138  -17.9352 C   0  0  0  0  0  0  0  0  0  0  0  0
  -48.2545   -3.7241  -16.9627 C   0  0  0  0  0  0  0  0  0  0  0  0
  -48.1118   -3.4653  -15.6053 C   0  0  0  0  0  0  0  0  0  0  0  0
  -49.2356   -3.0640  -14.8799 C   0  0  0  0  0  0  0  0  0  0  0  0
  -50.4782   -2.9337  -15.5163 C   0  0  0  0  0  0  0  0  0  0  0  0
  -51.9828   -2.3897  -14.5051 Br  0  0  0  0  0  0  0  0  0  0  0  0
  -50.6234   -3.1951  -16.8792 C   0  0  0  0  0  0  0  0  0  0  0  0
  -49.5017   -3.5911  -17.5875 C   0  0  0  0  0  0  0  0  0  0  0  0
  -49.3844   -3.8539  -18.9620 N   0  0  0  0  0  0  0  0  0  0  0  0
  -47.9674   -4.0689  -19.2939 C   0  0  0  0  0  0  0  0  0  0  0  0
  -47.5967   -2.8729  -20.1823 C   0  0  0  0  0  0  0  0  0  0  0  0
  -46.0922   -2.5697  -20.1658 C   0  0  0  0  0  0  0  0  0  0  0  0
  -45.7289   -2.2646  -18.7040 C   0  0  0  0  0  0  0  0  0  0  0  0
  -45.8131   -3.5636  -17.9038 C   0  0  0  0  0  0  0  0  0  0  0  0
  1  2  2  0
  2  3  1  0
  4  3  1  0
  4  5  1  0
  5  6  1  0
  6  7  1  0
  7  8  2  0
  8  9  1  0
  9 10  1  0
 10 11  1  0
 11 12  1  0
 13 12  1  0
 13 14  1  0
 14 15  2  0
 15 16  1  0
 16 17  2  0
 17 18  1  0
 17 19  1  0
 19 20  2  0
 20 21  1  0
 22 21  1  0
 22 23  1  0
 23 24  1  0
 24 25  1  0
 26 25  1  0
 21  2  1  0
 23  4  1  0
 24  8  1  0
 26 10  1  0
 22 13  1  0
 26 13  1  0
 20 14  1  0
M  END
> <minimizedAffinity>
-6.40462

> <CNNscore>
0.2706871629

> <CNNaffinity>
5.4640955925

> <CNN_VS>
1.4790605307

> <CNNaffinity_variance>
0.0583835728

$$$$



 26 32  0  0  0  0  0  0  0  0999 V2000
  -35.5394   -0.2163  -17.0420 O   0  0  0  0  0  0  0  0  0  0  0  0
  -34.5791   -0.1980  -16.2747 C   0  0  0  0  0  0  0  0  0  0  0  0
  -33.4028   -1.1440  -16.4939 C   0  0  0  0  0  0  0  0  0  0  0  0
  -32.0017   -0.6017  -16.1119 C   0  0  0  0  0  0  0  0  0  0  0  0
  -31.3937   -1.6425  -15.3343 O   0  0  0  0  0  0  0  0  0  0  0  0
  -30.0032   -1.4762  -15.0926 C   0  0  0  0  0  0  0  0  0  0  0  0
  -29.8451   -0.7393  -13.8066 C   0  0  0  0  0  0  0  0  0  0  0  0
  -30.2236    0.5394  -13.6355 C   0  0  0  0  0  0  0  0  0  0  0  0
  -30.1533    1.2293  -12.2926 C   0  0  0  0  0  0  0  0  0  0  0  0
  -31.4340    1.8443  -11.9267 N   0  0  0  0  0  0  0  0  0  0  0  0
  -32.3858    0.8729  -11.3683 C   0  0  0  0  0  0  0  0  0  0  0  0
  -33.7405    1.2640  -11.9312 C   0  0  0  0  0  0  0  0  0  0  0  0
  -33.3928    1.8001  -13.3258 C   0  0  0  0  0  0  0  0  0  0  0  0
  -34.5703    2.5447  -13.9050 C   0  0  0  0  0  0  0  0  0  0  0  0
  -35.0870    3.7739  -13.5153 C   0  0  0  0  0  0  0  0  0  0  0  0
  -36.2259    4.2558  -14.1640 C   0  0  0  0  0  0  0  0  0  0  0  0
  -36.8308    3.5047  -15.1818 C   0  0  0  0  0  0  0  0  0  0  0  0
  -38.3743    4.1846  -16.0405 Br  0  0  0  0  0  0  0  0  0  0  0  0
  -36.3140    2.2690  -15.5730 C   0  0  0  0  0  0  0  0  0  0  0  0
  -35.1841    1.8027  -14.9230 C   0  0  0  0  0  0  0  0  0  0  0  0
  -34.4545    0.6291  -15.1730 N   0  0  0  0  0  0  0  0  0  0  0  0
  -33.2311    0.6369  -14.3559 C   0  0  0  0  0  0  0  0  0  0  0  0
  -32.0901    0.7540  -15.3765 C   0  0  0  0  0  0  0  0  0  0  0  0
  -30.8148    1.3542  -14.7691 C   0  0  0  0  0  0  0  0  0  0  0  0
  -31.1973    2.7507  -14.2538 C   0  0  0  0  0  0  0  0  0  0  0  0
  -32.0990    2.5845  -13.0314 C   0  0  0  0  0  0  0  0  0  0  0  0
  1  2  2  0
  2  3  1  0
  4  3  1  0
  4  5  1  0
  5  6  1  0
  6  7  1  0
  7  8  2  0
  8  9  1  0
  9 10  1  0
 10 11  1  0
 11 12  1  0
 13 12  1  0
 13 14  1  0
 14 15  2  0
 15 16  1  0
 16 17  2  0
 17 18  1  0
 17 19  1  0
 19 20  2  0
 20 21  1  0
 22 21  1  0
 22 23  1  0
 23 24  1  0
 24 25  1  0
 26 25  1  0
 21  2  1  0
 23  4  1  0
 24  8  1  0
 26 10  1  0
 22 13  1  0
 26 13  1  0
 20 14  1  0
M  END
> <minimizedAffinity>
-8.12657

> <CNNscore>
0.2067609578

> <CNNaffinity>
5.9843144417

> <CNN_VS>
1.2373225689

> <CNNaffinity_variance>
0.0465187095

$$$$
