


 28 30  0  0  0  0  0  0  0  0999 V2000
  -36.5818   -2.8232    8.8904 C   0  0  0  0  0  0  0  0  0  0  0  0
  -36.9561   -3.7904    7.8148 C   0  0  0  0  0  0  0  0  0  0  0  0
  -38.1190   -3.7983    7.0604 C   0  0  0  0  0  0  0  0  0  0  0  0
  -38.0669   -4.8611    6.1965 N   0  0  0  0  0  0  0  0  0  0  0  0
  -36.8865   -5.5400    6.3628 C   0  0  0  0  0  0  0  0  0  0  0  0
  -36.3567   -6.6597    5.7474 C   0  0  0  0  0  0  0  0  0  0  0  0
  -36.9809   -7.3384    4.7131 N   0  0  0  0  0  0  0  0  0  0  0  0
  -35.1668   -7.1022    6.1721 N   0  0  0  0  0  0  0  0  0  0  0  0
  -34.5533   -6.4310    7.1667 C   0  0  0  0  0  0  0  0  0  0  0  0
  -33.3593   -6.9099    7.5519 F   0  0  0  0  0  0  0  0  0  0  0  0
  -34.9826   -5.3327    7.8066 N   0  0  0  0  0  0  0  0  0  0  0  0
  -36.1862   -4.9043    7.3761 C   0  0  0  0  0  0  0  0  0  0  0  0
  -38.7717   -5.1016    5.5525 H   0  0  0  0  0  0  0  0  0  0  0  0
  -37.8565   -7.0335    4.3821 H   0  0  0  0  0  0  0  0  0  0  0  0
  -36.5488   -8.1254    4.3094 H   0  0  0  0  0  0  0  0  0  0  0  0
  -35.0686   -0.5868    6.3489 C   0  0  0  0  0  0  0  0  0  0  0  0
  -36.1488   -1.5818    6.8237 C   0  0  0  0  0  0  0  0  0  0  0  0
  -36.0247   -1.6057    8.2898 N   0  0  0  0  0  0  0  0  0  0  0  0
  -34.5757   -1.5037    8.5303 C   0  0  0  0  0  0  0  0  0  0  0  0
  -34.2129   -0.3472    7.6008 C   0  0  0  0  0  0  0  0  0  0  0  0
  -34.6304    0.8820    8.2137 O   0  0  0  0  0  0  0  0  0  0  0  0
  -35.5795    0.8398    8.4092 H   0  0  0  0  0  0  0  0  0  0  0  0
  -34.2997   -1.1841    5.1666 C   0  0  0  0  0  0  0  0  0  0  0  0
  -32.9877   -0.1284    4.4591 S   0  0  0  0  0  0  0  0  0  0  0  0
  -33.9806    1.0204    3.4468 C   0  0  0  0  0  0  0  0  0  0  0  0
  -33.1902    1.6964    2.3240 C   0  0  0  0  0  0  0  0  0  0  0  0
  -35.4816    2.3445    1.3975 C   0  0  0  0  0  0  0  0  0  0  0  0
  -33.9859    2.6194    1.3946 C   0  0  0  0  0  0  0  0  0  0  0  0
 27 28  1  0
 28 26  1  0
 26 25  1  0
 25 24  1  0
 24 23  1  0
 16 23  1  0
 16 17  1  0
 17 18  1  0
 18  1  1  0
  1  2  1  0
  2  3  2  0
  3  4  1  0
  4  5  1  0
  5  6  2  0
  6  7  1  0
  6  8  1  0
  8  9  2  0
  9 10  1  0
  9 11  1  0
 11 12  2  0
 18 19  1  0
 19 20  1  0
 20 21  1  0
 20 16  1  0
 12  2  1  0
 12  5  1  0
  4 13  1  0
  7 14  1  0
  7 15  1  0
 21 22  1  0
M  END
> <minimizedAffinity>
-10.18457

> <CNNscore>
0.9968909621

> <CNNaffinity>
9.3229866028

> <CNN_VS>
9.2940006256

> <CNNaffinity_variance>
0.3767919540

$$$$



 28 30  0  0  0  0  0  0  0  0999 V2000
  -35.8945   -2.0869    7.8257 C   0  0  0  0  0  0  0  0  0  0  0  0
  -36.5284   -3.3078    7.2424 C   0  0  0  0  0  0  0  0  0  0  0  0
  -37.8296   -3.4403    6.7833 C   0  0  0  0  0  0  0  0  0  0  0  0
  -38.0038   -4.7263    6.3423 N   0  0  0  0  0  0  0  0  0  0  0  0
  -36.8375   -5.4328    6.4922 C   0  0  0  0  0  0  0  0  0  0  0  0
  -36.4927   -6.7409    6.2039 C   0  0  0  0  0  0  0  0  0  0  0  0
  -37.3519   -7.6512    5.6097 N   0  0  0  0  0  0  0  0  0  0  0  0
  -35.2524   -7.1420    6.5086 N   0  0  0  0  0  0  0  0  0  0  0  0
  -34.4126   -6.2507    7.0711 C   0  0  0  0  0  0  0  0  0  0  0  0
  -33.1783   -6.6993    7.3511 F   0  0  0  0  0  0  0  0  0  0  0  0
  -34.6547   -4.9651    7.3692 N   0  0  0  0  0  0  0  0  0  0  0  0
  -35.9101   -4.5777    7.0667 C   0  0  0  0  0  0  0  0  0  0  0  0
  -38.8413   -5.0889    5.9730 H   0  0  0  0  0  0  0  0  0  0  0  0
  -38.2694   -7.3816    5.3755 H   0  0  0  0  0  0  0  0  0  0  0  0
  -37.0450   -8.5675    5.4217 H   0  0  0  0  0  0  0  0  0  0  0  0
  -34.1478    0.3016    5.5908 C   0  0  0  0  0  0  0  0  0  0  0  0
  -34.7782   -0.0931    6.9432 C   0  0  0  0  0  0  0  0  0  0  0  0
  -34.8876   -1.5599    6.8974 N   0  0  0  0  0  0  0  0  0  0  0  0
  -35.2435   -1.8509    5.4986 C   0  0  0  0  0  0  0  0  0  0  0  0
  -34.2241   -0.9865    4.7591 C   0  0  0  0  0  0  0  0  0  0  0  0
  -32.9471   -1.6406    4.8078 O   0  0  0  0  0  0  0  0  0  0  0  0
  -32.7023   -1.8036    5.7321 H   0  0  0  0  0  0  0  0  0  0  0  0
  -34.9128    1.4845    4.9897 C   0  0  0  0  0  0  0  0  0  0  0  0
  -35.0418    1.5019    3.1677 S   0  0  0  0  0  0  0  0  0  0  0  0
  -33.8417    2.8121    2.7515 C   0  0  0  0  0  0  0  0  0  0  0  0
  -33.1294    2.5961    1.4143 C   0  0  0  0  0  0  0  0  0  0  0  0
  -35.0688    3.9559    0.4561 C   0  0  0  0  0  0  0  0  0  0  0  0
  -33.6843    3.3743    0.2162 C   0  0  0  0  0  0  0  0  0  0  0  0
 27 28  1  0
 28 26  1  0
 26 25  1  0
 25 24  1  0
 24 23  1  0
 16 23  1  0
 16 17  1  0
 17 18  1  0
 18  1  1  0
  1  2  1  0
  2  3  2  0
  3  4  1  0
  4  5  1  0
  5  6  2  0
  6  7  1  0
  6  8  1  0
  8  9  2  0
  9 10  1  0
  9 11  1  0
 11 12  2  0
 18 19  1  0
 19 20  1  0
 20 21  1  0
 20 16  1  0
 12  2  1  0
 12  5  1  0
  4 13  1  0
  7 14  1  0
  7 15  1  0
 21 22  1  0
M  END
> <minimizedAffinity>
-6.82168

> <CNNscore>
0.6409841776

> <CNNaffinity>
8.5073328018

> <CNN_VS>
5.4530658722

> <CNNaffinity_variance>
0.7702703476

$$$$



 28 30  0  0  0  0  0  0  0  0999 V2000
  -27.9292  -11.5069    3.9822 C   0  0  0  0  0  0  0  0  0  0  0  0
  -26.6604  -11.8194    4.7070 C   0  0  0  0  0  0  0  0  0  0  0  0
  -25.3966  -11.3149    4.4430 C   0  0  0  0  0  0  0  0  0  0  0  0
  -24.5147  -11.8699    5.3333 N   0  0  0  0  0  0  0  0  0  0  0  0
  -25.1802  -12.7172    6.1825 C   0  0  0  0  0  0  0  0  0  0  0  0
  -24.7584  -13.5048    7.2383 C   0  0  0  0  0  0  0  0  0  0  0  0
  -23.4510  -13.5448    7.6955 N   0  0  0  0  0  0  0  0  0  0  0  0
  -25.6725  -14.2617    7.8577 N   0  0  0  0  0  0  0  0  0  0  0  0
  -26.9469  -14.2088    7.4227 C   0  0  0  0  0  0  0  0  0  0  0  0
  -27.8268  -14.9806    8.0810 F   0  0  0  0  0  0  0  0  0  0  0  0
  -27.4461  -13.4660    6.4232 N   0  0  0  0  0  0  0  0  0  0  0  0
  -26.5131  -12.7169    5.8018 C   0  0  0  0  0  0  0  0  0  0  0  0
  -23.5476  -11.6876    5.3596 H   0  0  0  0  0  0  0  0  0  0  0  0
  -22.7594  -12.9978    7.2575 H   0  0  0  0  0  0  0  0  0  0  0  0
  -23.2136  -14.1202    8.4582 H   0  0  0  0  0  0  0  0  0  0  0  0
  -28.4887  -10.8167    0.3820 C   0  0  0  0  0  0  0  0  0  0  0  0
  -28.7867  -10.5892    1.8793 C   0  0  0  0  0  0  0  0  0  0  0  0
  -27.6308  -11.1613    2.5877 N   0  0  0  0  0  0  0  0  0  0  0  0
  -27.2824  -12.3567    1.8017 C   0  0  0  0  0  0  0  0  0  0  0  0
  -27.2945  -11.7814    0.3868 C   0  0  0  0  0  0  0  0  0  0  0  0
  -26.0914  -11.0233    0.1897 O   0  0  0  0  0  0  0  0  0  0  0  0
  -26.0248  -10.3389    0.8738 H   0  0  0  0  0  0  0  0  0  0  0  0
  -29.7371  -11.3649   -0.3158 C   0  0  0  0  0  0  0  0  0  0  0  0
  -31.1486  -10.2119   -0.4370 S   0  0  0  0  0  0  0  0  0  0  0  0
  -31.6816  -10.5020   -2.1580 C   0  0  0  0  0  0  0  0  0  0  0  0
  -32.1698   -9.2411   -2.8750 C   0  0  0  0  0  0  0  0  0  0  0  0
  -32.9987   -8.4338   -5.1531 C   0  0  0  0  0  0  0  0  0  0  0  0
  -31.9176   -9.1786   -4.3854 C   0  0  0  0  0  0  0  0  0  0  0  0
 27 28  1  0
 28 26  1  0
 26 25  1  0
 25 24  1  0
 24 23  1  0
 16 23  1  0
 16 17  1  0
 17 18  1  0
 18  1  1  0
  1  2  1  0
  2  3  2  0
  3  4  1  0
  4  5  1  0
  5  6  2  0
  6  7  1  0
  6  8  1  0
  8  9  2  0
  9 10  1  0
  9 11  1  0
 11 12  2  0
 18 19  1  0
 19 20  1  0
 20 21  1  0
 20 16  1  0
 12  2  1  0
 12  5  1  0
  4 13  1  0
  7 14  1  0
  7 15  1  0
 21 22  1  0
M  END
> <minimizedAffinity>
-6.32746

> <CNNscore>
0.2686249316

> <CNNaffinity>
5.0875735283

> <CNN_VS>
1.3666490316

> <CNNaffinity_variance>
0.7099461555

$$$$



 28 30  0  0  0  0  0  0  0  0999 V2000
  -29.1469  -10.1512    1.3627 C   0  0  0  0  0  0  0  0  0  0  0  0
  -27.9787  -11.0007    1.7456 C   0  0  0  0  0  0  0  0  0  0  0  0
  -26.8404  -11.2503    0.9951 C   0  0  0  0  0  0  0  0  0  0  0  0
  -26.0265  -12.0900    1.7100 N   0  0  0  0  0  0  0  0  0  0  0  0
  -26.6052  -12.3832    2.9188 C   0  0  0  0  0  0  0  0  0  0  0  0
  -26.2002  -13.1667    3.9842 C   0  0  0  0  0  0  0  0  0  0  0  0
  -24.9852  -13.8309    4.0342 N   0  0  0  0  0  0  0  0  0  0  0  0
  -27.0293  -13.2773    5.0295 N   0  0  0  0  0  0  0  0  0  0  0  0
  -28.2034  -12.6171    4.9865 C   0  0  0  0  0  0  0  0  0  0  0  0
  -28.9962  -12.7540    6.0616 F   0  0  0  0  0  0  0  0  0  0  0  0
  -28.6684  -11.8261    4.0077 N   0  0  0  0  0  0  0  0  0  0  0  0
  -27.8284  -11.7321    2.9574 C   0  0  0  0  0  0  0  0  0  0  0  0
  -25.1562  -12.4319    1.4019 H   0  0  0  0  0  0  0  0  0  0  0  0
  -24.3573  -13.7660    3.2787 H   0  0  0  0  0  0  0  0  0  0  0  0
  -24.7498  -14.3676    4.8252 H   0  0  0  0  0  0  0  0  0  0  0  0
  -30.5560  -10.2680   -2.0653 C   0  0  0  0  0  0  0  0  0  0  0  0
  -29.4262   -9.9512   -1.0625 C   0  0  0  0  0  0  0  0  0  0  0  0
  -29.7809  -10.6954    0.1565 N   0  0  0  0  0  0  0  0  0  0  0  0
  -31.2478  -10.5911    0.2281 C   0  0  0  0  0  0  0  0  0  0  0  0
  -31.6298  -10.9508   -1.2064 C   0  0  0  0  0  0  0  0  0  0  0  0
  -31.5124  -12.3723   -1.3695 O   0  0  0  0  0  0  0  0  0  0  0  0
  -30.6124  -12.6510   -1.1385 H   0  0  0  0  0  0  0  0  0  0  0  0
  -31.0215   -8.9763   -2.7442 C   0  0  0  0  0  0  0  0  0  0  0  0
  -32.5564   -9.1052   -3.7259 S   0  0  0  0  0  0  0  0  0  0  0  0
  -31.9120   -9.8156   -5.2783 C   0  0  0  0  0  0  0  0  0  0  0  0
  -30.8791   -8.9315   -5.9810 C   0  0  0  0  0  0  0  0  0  0  0  0
  -30.2878   -6.4545   -5.7724 C   0  0  0  0  0  0  0  0  0  0  0  0
  -31.2991   -7.4831   -6.2542 C   0  0  0  0  0  0  0  0  0  0  0  0
 27 28  1  0
 28 26  1  0
 26 25  1  0
 25 24  1  0
 24 23  1  0
 16 23  1  0
 16 17  1  0
 17 18  1  0
 18  1  1  0
  1  2  1  0
  2  3  2  0
  3  4  1  0
  4  5  1  0
  5  6  2  0
  6  7  1  0
  6  8  1  0
  8  9  2  0
  9 10  1  0
  9 11  1  0
 11 12  2  0
 18 19  1  0
 19 20  1  0
 20 21  1  0
 20 16  1  0
 12  2  1  0
 12  5  1  0
  4 13  1  0
  7 14  1  0
  7 15  1  0
 21 22  1  0
M  END
> <minimizedAffinity>
-5.42196

> <CNNscore>
0.2400938272

> <CNNaffinity>
4.9861545563

> <CNN_VS>
1.1971449852

> <CNNaffinity_variance>
0.4390041530

$$$$



 28 30  0  0  0  0  0  0  0  0999 V2000
  -34.8278   -0.2851    3.8845 C   0  0  0  0  0  0  0  0  0  0  0  0
  -34.6477   -0.4672    5.3567 C   0  0  0  0  0  0  0  0  0  0  0  0
  -33.7040    0.1422    6.1687 C   0  0  0  0  0  0  0  0  0  0  0  0
  -33.8778   -0.3124    7.4500 N   0  0  0  0  0  0  0  0  0  0  0  0
  -34.9254   -1.1970    7.4931 C   0  0  0  0  0  0  0  0  0  0  0  0
  -35.4968   -1.9206    8.5241 C   0  0  0  0  0  0  0  0  0  0  0  0
  -35.0881   -1.8338    9.8452 N   0  0  0  0  0  0  0  0  0  0  0  0
  -36.5101   -2.7424    8.2242 N   0  0  0  0  0  0  0  0  0  0  0  0
  -36.9175   -2.8130    6.9416 C   0  0  0  0  0  0  0  0  0  0  0  0
  -37.9414   -3.6456    6.6934 F   0  0  0  0  0  0  0  0  0  0  0  0
  -36.4357   -2.1396    5.8859 N   0  0  0  0  0  0  0  0  0  0  0  0
  -35.4093   -1.3239    6.2004 C   0  0  0  0  0  0  0  0  0  0  0  0
  -33.3320   -0.0440    8.2242 H   0  0  0  0  0  0  0  0  0  0  0  0
  -34.3452   -1.2370   10.0925 H   0  0  0  0  0  0  0  0  0  0  0  0
  -35.5406   -2.3690   10.5366 H   0  0  0  0  0  0  0  0  0  0  0  0
  -34.9259    2.8594    1.9216 C   0  0  0  0  0  0  0  0  0  0  0  0
  -35.6049    1.6526    2.6034 C   0  0  0  0  0  0  0  0  0  0  0  0
  -34.5912    1.1181    3.5265 N   0  0  0  0  0  0  0  0  0  0  0  0
  -33.3212    1.2791    2.7990 C   0  0  0  0  0  0  0  0  0  0  0  0
  -33.4490    2.7232    2.3179 C   0  0  0  0  0  0  0  0  0  0  0  0
  -33.1879    3.5999    3.4243 O   0  0  0  0  0  0  0  0  0  0  0  0
  -33.7937    3.3908    4.1525 H   0  0  0  0  0  0  0  0  0  0  0  0
  -35.1790    2.8099    0.4118 C   0  0  0  0  0  0  0  0  0  0  0  0
  -34.9392    4.3832   -0.4845 S   0  0  0  0  0  0  0  0  0  0  0  0
  -33.3631    4.0523   -1.3426 C   0  0  0  0  0  0  0  0  0  0  0  0
  -33.0399    5.0567   -2.4513 C   0  0  0  0  0  0  0  0  0  0  0  0
  -30.8759    6.3850   -2.7364 C   0  0  0  0  0  0  0  0  0  0  0  0
  -31.5944    5.0636   -2.9605 C   0  0  0  0  0  0  0  0  0  0  0  0
 27 28  1  0
 28 26  1  0
 26 25  1  0
 25 24  1  0
 24 23  1  0
 16 23  1  0
 16 17  1  0
 17 18  1  0
 18  1  1  0
  1  2  1  0
  2  3  2  0
  3  4  1  0
  4  5  1  0
  5  6  2  0
  6  7  1  0
  6  8  1  0
  8  9  2  0
  9 10  1  0
  9 11  1  0
 11 12  2  0
 18 19  1  0
 19 20  1  0
 20 21  1  0
 20 16  1  0
 12  2  1  0
 12  5  1  0
  4 13  1  0
  7 14  1  0
  7 15  1  0
 21 22  1  0
M  END
> <minimizedAffinity>
-5.90442

> <CNNscore>
0.2337030917

> <CNNaffinity>
6.5004267693

> <CNN_VS>
1.5191698074

> <CNNaffinity_variance>
0.7416056991

$$$$



 28 30  0  0  0  0  0  0  0  0999 V2000
  -34.7726   -0.3793    4.0016 C   0  0  0  0  0  0  0  0  0  0  0  0
  -34.6473   -0.5339    5.4826 C   0  0  0  0  0  0  0  0  0  0  0  0
  -33.7137    0.0661    6.3133 C   0  0  0  0  0  0  0  0  0  0  0  0
  -33.9435   -0.3549    7.5972 N   0  0  0  0  0  0  0  0  0  0  0  0
  -35.0175   -1.2080    7.6233 C   0  0  0  0  0  0  0  0  0  0  0  0
  -35.6441   -1.8919    8.6493 C   0  0  0  0  0  0  0  0  0  0  0  0
  -35.2775   -1.7877    9.9814 N   0  0  0  0  0  0  0  0  0  0  0  0
  -36.6706   -2.6908    8.3325 N   0  0  0  0  0  0  0  0  0  0  0  0
  -37.0367   -2.7780    7.0384 C   0  0  0  0  0  0  0  0  0  0  0  0
  -38.0757   -3.5863    6.7732 F   0  0  0  0  0  0  0  0  0  0  0  0
  -36.5003   -2.1422    5.9858 N   0  0  0  0  0  0  0  0  0  0  0  0
  -35.4615   -1.3496    6.3178 C   0  0  0  0  0  0  0  0  0  0  0  0
  -33.4163   -0.0852    8.3837 H   0  0  0  0  0  0  0  0  0  0  0  0
  -34.5261   -1.2070   10.2412 H   0  0  0  0  0  0  0  0  0  0  0  0
  -35.7684   -2.2943   10.6681 H   0  0  0  0  0  0  0  0  0  0  0  0
  -34.9389    2.7511    2.0208 C   0  0  0  0  0  0  0  0  0  0  0  0
  -35.5929    1.5423    2.7232 C   0  0  0  0  0  0  0  0  0  0  0  0
  -34.5565    1.0238    3.6301 N   0  0  0  0  0  0  0  0  0  0  0  0
  -33.3023    1.1922    2.8774 C   0  0  0  0  0  0  0  0  0  0  0  0
  -33.4534    2.6317    2.3895 C   0  0  0  0  0  0  0  0  0  0  0  0
  -33.1797    3.5182    3.4851 O   0  0  0  0  0  0  0  0  0  0  0  0
  -33.7694    3.3081    4.2261 H   0  0  0  0  0  0  0  0  0  0  0  0
  -35.2203    2.6892    0.5166 C   0  0  0  0  0  0  0  0  0  0  0  0
  -34.3360    3.9167   -0.5069 S   0  0  0  0  0  0  0  0  0  0  0  0
  -35.6539    4.4065   -1.6703 C   0  0  0  0  0  0  0  0  0  0  0  0
  -36.5264    3.2411   -2.1423 C   0  0  0  0  0  0  0  0  0  0  0  0
  -35.3182    2.1199   -4.0947 C   0  0  0  0  0  0  0  0  0  0  0  0
  -36.5121    2.9484   -3.6467 C   0  0  0  0  0  0  0  0  0  0  0  0
 27 28  1  0
 28 26  1  0
 26 25  1  0
 25 24  1  0
 24 23  1  0
 16 23  1  0
 16 17  1  0
 17 18  1  0
 18  1  1  0
  1  2  1  0
  2  3  2  0
  3  4  1  0
  4  5  1  0
  5  6  2  0
  6  7  1  0
  6  8  1  0
  8  9  2  0
  9 10  1  0
  9 11  1  0
 11 12  2  0
 18 19  1  0
 19 20  1  0
 20 21  1  0
 20 16  1  0
 12  2  1  0
 12  5  1  0
  4 13  1  0
  7 14  1  0
  7 15  1  0
 21 22  1  0
M  END
> <minimizedAffinity>
-5.98602

> <CNNscore>
0.2180690169

> <CNNaffinity>
6.6250901222

> <CNN_VS>
1.4447269440

> <CNNaffinity_variance>
0.5880632401

$$$$



 28 30  0  0  0  0  0  0  0  0999 V2000
  -34.8456   -0.3248    3.9698 C   0  0  0  0  0  0  0  0  0  0  0  0
  -34.6591   -0.5228    5.4391 C   0  0  0  0  0  0  0  0  0  0  0  0
  -33.6913    0.0529    6.2475 C   0  0  0  0  0  0  0  0  0  0  0  0
  -33.8681   -0.4056    7.5270 N   0  0  0  0  0  0  0  0  0  0  0  0
  -34.9408   -1.2594    7.5726 C   0  0  0  0  0  0  0  0  0  0  0  0
  -35.5250   -1.9733    8.6032 C   0  0  0  0  0  0  0  0  0  0  0  0
  -35.1033   -1.9081    9.9215 N   0  0  0  0  0  0  0  0  0  0  0  0
  -36.5644   -2.7628    8.3060 N   0  0  0  0  0  0  0  0  0  0  0  0
  -36.9840   -2.8122    7.0263 C   0  0  0  0  0  0  0  0  0  0  0  0
  -38.0339   -3.6127    6.7808 F   0  0  0  0  0  0  0  0  0  0  0  0
  -36.4911   -2.1457    5.9714 N   0  0  0  0  0  0  0  0  0  0  0  0
  -35.4387   -1.3628    6.2831 C   0  0  0  0  0  0  0  0  0  0  0  0
  -33.3085   -0.1589    8.2985 H   0  0  0  0  0  0  0  0  0  0  0  0
  -34.3413   -1.3350   10.1667 H   0  0  0  0  0  0  0  0  0  0  0  0
  -35.5658   -2.4347   10.6129 H   0  0  0  0  0  0  0  0  0  0  0  0
  -34.8615    2.8313    2.0231 C   0  0  0  0  0  0  0  0  0  0  0  0
  -35.5715    1.6371    2.6956 C   0  0  0  0  0  0  0  0  0  0  0  0
  -34.5745    1.0743    3.6201 N   0  0  0  0  0  0  0  0  0  0  0  0
  -33.2980    1.2092    2.8989 C   0  0  0  0  0  0  0  0  0  0  0  0
  -33.3899    2.6583    2.4248 C   0  0  0  0  0  0  0  0  0  0  0  0
  -33.1131    3.5230    3.5370 O   0  0  0  0  0  0  0  0  0  0  0  0
  -33.7267    3.3243    4.2615 H   0  0  0  0  0  0  0  0  0  0  0  0
  -35.1091    2.7955    0.5121 C   0  0  0  0  0  0  0  0  0  0  0  0
  -36.3237    4.0038   -0.1213 S   0  0  0  0  0  0  0  0  0  0  0  0
  -37.8897    3.1485    0.2609 C   0  0  0  0  0  0  0  0  0  0  0  0
  -39.0433    4.0942    0.6031 C   0  0  0  0  0  0  0  0  0  0  0  0
  -41.4508    4.3728    1.4125 C   0  0  0  0  0  0  0  0  0  0  0  0
  -40.2209    3.4794    1.3674 C   0  0  0  0  0  0  0  0  0  0  0  0
 27 28  1  0
 28 26  1  0
 26 25  1  0
 25 24  1  0
 24 23  1  0
 16 23  1  0
 16 17  1  0
 17 18  1  0
 18  1  1  0
  1  2  1  0
  2  3  2  0
  3  4  1  0
  4  5  1  0
  5  6  2  0
  6  7  1  0
  6  8  1  0
  8  9  2  0
  9 10  1  0
  9 11  1  0
 11 12  2  0
 18 19  1  0
 19 20  1  0
 20 21  1  0
 20 16  1  0
 12  2  1  0
 12  5  1  0
  4 13  1  0
  7 14  1  0
  7 15  1  0
 21 22  1  0
M  END
> <minimizedAffinity>
-6.20080

> <CNNscore>
0.2092544287

> <CNNaffinity>
6.5336494446

> <CNN_VS>
1.3671951294

> <CNNaffinity_variance>
0.5378681421

$$$$



 28 30  0  0  0  0  0  0  0  0999 V2000
  -28.0371  -12.7124    5.3034 C   0  0  0  0  0  0  0  0  0  0  0  0
  -26.9727  -13.2005    6.2317 C   0  0  0  0  0  0  0  0  0  0  0  0
  -27.0856  -14.1971    7.1885 C   0  0  0  0  0  0  0  0  0  0  0  0
  -25.8799  -14.3209    7.8284 N   0  0  0  0  0  0  0  0  0  0  0  0
  -24.9776  -13.4334    7.2991 C   0  0  0  0  0  0  0  0  0  0  0  0
  -23.6511  -13.1657    7.5850 C   0  0  0  0  0  0  0  0  0  0  0  0
  -22.9132  -13.8546    8.5341 N   0  0  0  0  0  0  0  0  0  0  0  0
  -23.0472  -12.1910    6.8940 N   0  0  0  0  0  0  0  0  0  0  0  0
  -23.7614  -11.5332    5.9595 C   0  0  0  0  0  0  0  0  0  0  0  0
  -23.1090  -10.5699    5.2891 F   0  0  0  0  0  0  0  0  0  0  0  0
  -25.0397  -11.7357    5.6060 N   0  0  0  0  0  0  0  0  0  0  0  0
  -25.6384  -12.7125    6.3167 C   0  0  0  0  0  0  0  0  0  0  0  0
  -25.6897  -14.9526    8.5592 H   0  0  0  0  0  0  0  0  0  0  0  0
  -23.3335  -14.5759    9.0559 H   0  0  0  0  0  0  0  0  0  0  0  0
  -21.9686  -13.6229    8.6866 H   0  0  0  0  0  0  0  0  0  0  0  0
  -27.7216  -11.2029    1.9311 C   0  0  0  0  0  0  0  0  0  0  0  0
  -28.3943  -11.3278    3.3147 C   0  0  0  0  0  0  0  0  0  0  0  0
  -27.4209  -12.0539    4.1459 N   0  0  0  0  0  0  0  0  0  0  0  0
  -26.8231  -13.0357    3.2257 C   0  0  0  0  0  0  0  0  0  0  0  0
  -26.5149  -12.1476    2.0218 C   0  0  0  0  0  0  0  0  0  0  0  0
  -25.3440  -11.3698    2.3136 O   0  0  0  0  0  0  0  0  0  0  0  0
  -25.4872  -10.8631    3.1283 H   0  0  0  0  0  0  0  0  0  0  0  0
  -28.7253  -11.5687    0.8336 C   0  0  0  0  0  0  0  0  0  0  0  0
  -30.3182  -10.6763    0.8864 S   0  0  0  0  0  0  0  0  0  0  0  0
  -30.0458   -9.4118   -0.4008 C   0  0  0  0  0  0  0  0  0  0  0  0
  -31.3071   -9.0491   -1.1881 C   0  0  0  0  0  0  0  0  0  0  0  0
  -32.1214   -9.8305   -3.4805 C   0  0  0  0  0  0  0  0  0  0  0  0
  -31.9414  -10.1761   -2.0106 C   0  0  0  0  0  0  0  0  0  0  0  0
 27 28  1  0
 28 26  1  0
 26 25  1  0
 25 24  1  0
 24 23  1  0
 16 23  1  0
 16 17  1  0
 17 18  1  0
 18  1  1  0
  1  2  1  0
  2  3  2  0
  3  4  1  0
  4  5  1  0
  5  6  2  0
  6  7  1  0
  6  8  1  0
  8  9  2  0
  9 10  1  0
  9 11  1  0
 11 12  2  0
 18 19  1  0
 19 20  1  0
 20 21  1  0
 20 16  1  0
 12  2  1  0
 12  5  1  0
  4 13  1  0
  7 14  1  0
  7 15  1  0
 21 22  1  0
M  END
> <minimizedAffinity>
-6.91835

> <CNNscore>
0.2078790516

> <CNNaffinity>
4.4282526970

> <CNN_VS>
0.9205409884

> <CNNaffinity_variance>
1.7214967012

$$$$



 28 30  0  0  0  0  0  0  0  0999 V2000
  -27.2509  -12.3045    1.0698 C   0  0  0  0  0  0  0  0  0  0  0  0
  -26.5647  -11.4977    2.1238 C   0  0  0  0  0  0  0  0  0  0  0  0
  -25.6503  -10.4733    1.9345 C   0  0  0  0  0  0  0  0  0  0  0  0
  -25.2572  -10.0118    3.1637 N   0  0  0  0  0  0  0  0  0  0  0  0
  -25.9073  -10.7060    4.1524 C   0  0  0  0  0  0  0  0  0  0  0  0
  -25.8666  -10.6268    5.5326 C   0  0  0  0  0  0  0  0  0  0  0  0
  -25.1072   -9.7006    6.2292 N   0  0  0  0  0  0  0  0  0  0  0  0
  -26.6146  -11.4902    6.2306 N   0  0  0  0  0  0  0  0  0  0  0  0
  -27.3656  -12.3795    5.5513 C   0  0  0  0  0  0  0  0  0  0  0  0
  -28.1032  -13.2187    6.2962 F   0  0  0  0  0  0  0  0  0  0  0  0
  -27.4788  -12.5165    4.2215 N   0  0  0  0  0  0  0  0  0  0  0  0
  -26.7126  -11.6480    3.5315 C   0  0  0  0  0  0  0  0  0  0  0  0
  -24.6054   -9.2896    3.3147 H   0  0  0  0  0  0  0  0  0  0  0  0
  -24.5483   -9.0544    5.7399 H   0  0  0  0  0  0  0  0  0  0  0  0
  -25.1264   -9.6886    7.2135 H   0  0  0  0  0  0  0  0  0  0  0  0
  -30.0837  -10.7228   -0.7258 C   0  0  0  0  0  0  0  0  0  0  0  0
  -28.9725  -11.7860   -0.5936 C   0  0  0  0  0  0  0  0  0  0  0  0
  -28.5937  -11.7642    0.8282 N   0  0  0  0  0  0  0  0  0  0  0  0
  -28.6745  -10.3420    1.2007 C   0  0  0  0  0  0  0  0  0  0  0  0
  -30.0332   -9.9693    0.6108 C   0  0  0  0  0  0  0  0  0  0  0  0
  -31.0626  -10.4860    1.4679 O   0  0  0  0  0  0  0  0  0  0  0  0
  -30.9469  -11.4435    1.5712 H   0  0  0  0  0  0  0  0  0  0  0  0
  -29.8162   -9.8456   -1.9526 C   0  0  0  0  0  0  0  0  0  0  0  0
  -30.4805   -8.1461   -1.8722 S   0  0  0  0  0  0  0  0  0  0  0  0
  -31.8923   -8.2750   -3.0213 C   0  0  0  0  0  0  0  0  0  0  0  0
  -32.4103   -9.7032   -3.2067 C   0  0  0  0  0  0  0  0  0  0  0  0
  -33.2820   -8.8328   -5.4453 C   0  0  0  0  0  0  0  0  0  0  0  0
  -32.9586  -10.0514   -4.5949 C   0  0  0  0  0  0  0  0  0  0  0  0
 27 28  1  0
 28 26  1  0
 26 25  1  0
 25 24  1  0
 24 23  1  0
 16 23  1  0
 16 17  1  0
 17 18  1  0
 18  1  1  0
  1  2  1  0
  2  3  2  0
  3  4  1  0
  4  5  1  0
  5  6  2  0
  6  7  1  0
  6  8  1  0
  8  9  2  0
  9 10  1  0
  9 11  1  0
 11 12  2  0
 18 19  1  0
 19 20  1  0
 20 21  1  0
 20 16  1  0
 12  2  1  0
 12  5  1  0
  4 13  1  0
  7 14  1  0
  7 15  1  0
 21 22  1  0
M  END
> <minimizedAffinity>
-6.35596

> <CNNscore>
0.1817601323

> <CNNaffinity>
5.1424479485

> <CNN_VS>
0.9346920252

> <CNNaffinity_variance>
0.2054475695

$$$$
