


 38 40  0  0  0  0  0  0  0  0999 V2000
   14.8505    9.8057    2.0213 C   0  0  0  0  0  0  0  0  0  0  0  0
   15.0052   10.8059    0.9971 O   0  0  0  0  0  0  0  0  0  0  0  0
   14.1803   10.4153   -0.1211 C   0  0  0  0  0  0  0  0  0  0  0  0
   13.5314    9.0654    0.2167 C   0  0  0  0  0  0  0  0  0  0  0  0
   12.2168    9.2389    0.7943 O   0  0  0  0  0  0  0  0  0  0  0  0
   14.4506    8.5268    1.2967 C   0  0  0  0  0  0  0  0  0  0  0  0
   13.7807    7.6117    2.1533 O   0  0  0  0  0  0  0  0  0  0  0  0
   12.2814    9.8010    1.5822 H   0  0  0  0  0  0  0  0  0  0  0  0
   13.0031    8.0423    2.5415 H   0  0  0  0  0  0  0  0  0  0  0  0
   14.9744   10.3826   -1.3339 N   0  0  0  0  0  0  0  0  0  0  0  0
   16.3061   10.6448   -1.4843 C   0  0  0  0  0  0  0  0  0  0  0  0
   16.6811   10.5857   -2.7448 N   0  0  0  0  0  0  0  0  0  0  0  0
   15.5394   10.2520   -3.4393 C   0  0  0  0  0  0  0  0  0  0  0  0
   15.2728   10.0587   -4.8057 C   0  0  0  0  0  0  0  0  0  0  0  0
   16.2419   10.1756   -5.7953 N   0  0  0  0  0  0  0  0  0  0  0  0
   14.0050    9.7748   -5.1831 N   0  0  0  0  0  0  0  0  0  0  0  0
   13.0536    9.6588   -4.2288 C   0  0  0  0  0  0  0  0  0  0  0  0
   11.2944    9.2519   -4.8409 Br  0  0  0  0  0  0  0  0  0  0  0  0
   13.1981    9.8064   -2.8916 N   0  0  0  0  0  0  0  0  0  0  0  0
   14.4665   10.1170   -2.5767 C   0  0  0  0  0  0  0  0  0  0  0  0
   17.1730   10.3816   -5.5507 H   0  0  0  0  0  0  0  0  0  0  0  0
   15.9971   10.0525   -6.7409 H   0  0  0  0  0  0  0  0  0  0  0  0
   16.1315    9.6850    2.8402 C   0  0  0  0  0  0  0  0  0  0  0  0
   17.2151   10.2707    2.1334 O   0  0  0  0  0  0  0  0  0  0  0  0
   18.7242    9.9319    2.6102 S   0  0  0  0  0  0  0  0  0  0  0  0
   19.4083   11.1681    2.9001 O   0  0  0  0  0  0  0  0  0  0  0  0
   18.6713    8.8718    3.5960 O   0  0  0  0  0  0  0  0  0  0  0  0
   20.0578   10.0341    0.2745 C   0  0  0  0  0  0  0  0  0  0  0  0
   19.8300   11.2265    0.1319 O   0  0  0  0  0  0  0  0  0  0  0  0
   19.4773    9.2649    1.2979 N   0  0  0  0  0  0  0  0  0  0  0  0
   19.5212    8.2837    1.2302 H   0  0  0  0  0  0  0  0  0  0  0  0
   21.0722    9.2462   -0.5874 C   0  0  0  0  0  0  0  0  0  0  0  0
   20.6391    7.8290   -0.6403 N   0  0  0  0  0  0  0  0  0  0  0  0
   20.6244    7.4425    0.3035 H   0  0  0  0  0  0  0  0  0  0  0  0
   21.2906    7.2956   -1.2160 H   0  0  0  0  0  0  0  0  0  0  0  0
   22.5517    9.3737    1.4818 C   0  0  0  0  0  0  0  0  0  0  0  0
   22.5174    9.3850   -0.0518 C   0  0  0  0  0  0  0  0  0  0  0  0
   23.4205    8.2537   -0.5639 C   0  0  0  0  0  0  0  0  0  0  0  0
 36 37  1  0
 37 38  1  0
 37 32  1  0
 32 33  1  0
 32 28  1  0
 28 29  2  0
 28 30  1  0
 30 25  1  0
 25 26  2  0
 25 27  2  0
 25 24  1  0
 24 23  1  0
  1 23  1  0
  1  2  1  0
  2  3  1  0
  3 10  1  0
 10 11  1  0
 11 12  2  0
 12 13  1  0
 13 14  2  0
 14 15  1  0
 14 16  1  0
 16 17  2  0
 17 18  1  0
 17 19  1  0
 19 20  2  0
  3  4  1  0
  4  5  1  0
  4  6  1  0
  6  7  1  0
  6  1  1  0
 20 10  1  0
 20 13  1  0
 33 34  1  0
 33 35  1  0
 30 31  1  0
 15 21  1  0
 15 22  1  0
  5  8  1  0
  7  9  1  0
M  END
> <minimizedAffinity>
-9.49423

> <CNNscore>
0.2063664347

> <CNNaffinity>
5.3641605377

> <CNN_VS>
1.1069827080

> <CNNaffinity_variance>
0.2629830539

$$$$



 38 40  0  0  0  0  0  0  0  0999 V2000
   21.1251   10.3608    2.2324 C   0  0  0  0  0  0  0  0  0  0  0  0
   22.1128   10.7510    3.2048 O   0  0  0  0  0  0  0  0  0  0  0  0
   23.0447    9.6573    3.3416 C   0  0  0  0  0  0  0  0  0  0  0  0
   22.5625    8.5079    2.4451 C   0  0  0  0  0  0  0  0  0  0  0  0
   23.1970    8.5470    1.1459 O   0  0  0  0  0  0  0  0  0  0  0  0
   21.0934    8.8380    2.2594 C   0  0  0  0  0  0  0  0  0  0  0  0
   20.5766    8.2904    1.0541 O   0  0  0  0  0  0  0  0  0  0  0  0
   23.0292    9.4070    0.7299 H   0  0  0  0  0  0  0  0  0  0  0  0
   21.1019    8.6084    0.3032 H   0  0  0  0  0  0  0  0  0  0  0  0
   23.1672    9.2836    4.7373 N   0  0  0  0  0  0  0  0  0  0  0  0
   22.5005    9.7934    5.8146 C   0  0  0  0  0  0  0  0  0  0  0  0
   22.9135    9.2629    6.9464 N   0  0  0  0  0  0  0  0  0  0  0  0
   23.8813    8.3539    6.5798 C   0  0  0  0  0  0  0  0  0  0  0  0
   24.7093    7.4889    7.3157 C   0  0  0  0  0  0  0  0  0  0  0  0
   24.6696    7.3916    8.7018 N   0  0  0  0  0  0  0  0  0  0  0  0
   25.6121    6.7344    6.6478 N   0  0  0  0  0  0  0  0  0  0  0  0
   25.6600    6.8210    5.2989 C   0  0  0  0  0  0  0  0  0  0  0  0
   26.9547    5.7224    4.4316 Br  0  0  0  0  0  0  0  0  0  0  0  0
   24.9058    7.6012    4.4907 N   0  0  0  0  0  0  0  0  0  0  0  0
   24.0504    8.3495    5.2069 C   0  0  0  0  0  0  0  0  0  0  0  0
   24.0231    7.9285    9.2146 H   0  0  0  0  0  0  0  0  0  0  0  0
   25.2879    6.7857    9.1706 H   0  0  0  0  0  0  0  0  0  0  0  0
   19.7855   11.0188    2.5461 C   0  0  0  0  0  0  0  0  0  0  0  0
   18.9683   11.0315    1.3847 O   0  0  0  0  0  0  0  0  0  0  0  0
   18.9419   12.3670    0.4708 S   0  0  0  0  0  0  0  0  0  0  0  0
   18.7418   13.5111    1.3260 O   0  0  0  0  0  0  0  0  0  0  0  0
   20.0613   12.3218   -0.4475 O   0  0  0  0  0  0  0  0  0  0  0  0
   17.2448   11.0599   -1.1589 C   0  0  0  0  0  0  0  0  0  0  0  0
   18.0223   10.1300   -1.3156 O   0  0  0  0  0  0  0  0  0  0  0  0
   17.5960   12.2405   -0.4814 N   0  0  0  0  0  0  0  0  0  0  0  0
   17.0138   13.0284   -0.5784 H   0  0  0  0  0  0  0  0  0  0  0  0
   15.7632   11.0224   -1.6018 C   0  0  0  0  0  0  0  0  0  0  0  0
   14.9180   10.8652   -0.3936 N   0  0  0  0  0  0  0  0  0  0  0  0
   15.1538    9.9904    0.0749 H   0  0  0  0  0  0  0  0  0  0  0  0
   13.9351   10.8511   -0.6657 H   0  0  0  0  0  0  0  0  0  0  0  0
   14.1821    9.1695   -2.3461 C   0  0  0  0  0  0  0  0  0  0  0  0
   15.4971    9.9038   -2.6377 C   0  0  0  0  0  0  0  0  0  0  0  0
   15.4330   10.4614   -4.0668 C   0  0  0  0  0  0  0  0  0  0  0  0
 36 37  1  0
 37 38  1  0
 37 32  1  0
 32 33  1  0
 32 28  1  0
 28 29  2  0
 28 30  1  0
 30 25  1  0
 25 26  2  0
 25 27  2  0
 25 24  1  0
 24 23  1  0
  1 23  1  0
  1  2  1  0
  2  3  1  0
  3 10  1  0
 10 11  1  0
 11 12  2  0
 12 13  1  0
 13 14  2  0
 14 15  1  0
 14 16  1  0
 16 17  2  0
 17 18  1  0
 17 19  1  0
 19 20  2  0
  3  4  1  0
  4  5  1  0
  4  6  1  0
  6  7  1  0
  6  1  1  0
 20 10  1  0
 20 13  1  0
 33 34  1  0
 33 35  1  0
 30 31  1  0
 15 21  1  0
 15 22  1  0
  5  8  1  0
  7  9  1  0
M  END
> <minimizedAffinity>
-9.74501

> <CNNscore>
0.1072892025

> <CNNaffinity>
4.3412384987

> <CNN_VS>
0.4657680094

> <CNNaffinity_variance>
0.6157690883

$$$$



 38 40  0  0  0  0  0  0  0  0999 V2000
   17.8866   11.4501    1.7557 C   0  0  0  0  0  0  0  0  0  0  0  0
   17.5571   10.3358    0.9053 O   0  0  0  0  0  0  0  0  0  0  0  0
   18.0471   10.6384   -0.4182 C   0  0  0  0  0  0  0  0  0  0  0  0
   18.6573   12.0470   -0.3877 C   0  0  0  0  0  0  0  0  0  0  0  0
   20.0833   12.0019   -0.1503 O   0  0  0  0  0  0  0  0  0  0  0  0
   17.9977   12.6581    0.8343 C   0  0  0  0  0  0  0  0  0  0  0  0
   18.7894   13.6937    1.4002 O   0  0  0  0  0  0  0  0  0  0  0  0
   20.2584   11.5286    0.6781 H   0  0  0  0  0  0  0  0  0  0  0  0
   19.6689   13.3467    1.6168 H   0  0  0  0  0  0  0  0  0  0  0  0
   16.9765   10.4979   -1.3860 N   0  0  0  0  0  0  0  0  0  0  0  0
   17.0054   10.7521   -2.7274 C   0  0  0  0  0  0  0  0  0  0  0  0
   15.8270   10.5786   -3.2878 N   0  0  0  0  0  0  0  0  0  0  0  0
   15.0017   10.1758   -2.2612 C   0  0  0  0  0  0  0  0  0  0  0  0
   13.6346    9.8554   -2.2022 C   0  0  0  0  0  0  0  0  0  0  0  0
   12.7962    9.8854   -3.3106 N   0  0  0  0  0  0  0  0  0  0  0  0
   13.0977    9.5309   -1.0035 N   0  0  0  0  0  0  0  0  0  0  0  0
   13.9039    9.4987    0.0820 C   0  0  0  0  0  0  0  0  0  0  0  0
   13.0732    9.0274    1.7321 Br  0  0  0  0  0  0  0  0  0  0  0  0
   15.2282    9.7703    0.1398 N   0  0  0  0  0  0  0  0  0  0  0  0
   15.7011   10.1155   -1.0692 C   0  0  0  0  0  0  0  0  0  0  0  0
   13.1586   10.1182   -4.1958 H   0  0  0  0  0  0  0  0  0  0  0  0
   11.8399    9.6739   -3.2103 H   0  0  0  0  0  0  0  0  0  0  0  0
   16.8438   11.5999    2.8586 C   0  0  0  0  0  0  0  0  0  0  0  0
   17.1888   10.7803    3.9658 O   0  0  0  0  0  0  0  0  0  0  0  0
   16.4043    9.3789    4.1662 S   0  0  0  0  0  0  0  0  0  0  0  0
   15.0304    9.5542    3.7638 O   0  0  0  0  0  0  0  0  0  0  0  0
   17.2065    8.3140    3.5998 O   0  0  0  0  0  0  0  0  0  0  0  0
   15.6194    9.8408    6.6990 C   0  0  0  0  0  0  0  0  0  0  0  0
   15.1074   10.9111    6.4049 O   0  0  0  0  0  0  0  0  0  0  0  0
   16.3928    9.0925    5.7947 N   0  0  0  0  0  0  0  0  0  0  0  0
   16.9535    8.3641    6.1473 H   0  0  0  0  0  0  0  0  0  0  0  0
   15.4103    9.1359    8.0599 C   0  0  0  0  0  0  0  0  0  0  0  0
   16.1524    7.8523    8.0403 N   0  0  0  0  0  0  0  0  0  0  0  0
   15.7887    7.2608    7.2931 H   0  0  0  0  0  0  0  0  0  0  0  0
   16.0360    7.3786    8.9361 H   0  0  0  0  0  0  0  0  0  0  0  0
   13.3335   10.1106    9.1662 C   0  0  0  0  0  0  0  0  0  0  0  0
   13.9105    8.9270    8.3790 C   0  0  0  0  0  0  0  0  0  0  0  0
   13.0808    8.7465    7.0998 C   0  0  0  0  0  0  0  0  0  0  0  0
 36 37  1  0
 37 38  1  0
 37 32  1  0
 32 33  1  0
 32 28  1  0
 28 29  2  0
 28 30  1  0
 30 25  1  0
 25 26  2  0
 25 27  2  0
 25 24  1  0
 24 23  1  0
  1 23  1  0
  1  2  1  0
  2  3  1  0
  3 10  1  0
 10 11  1  0
 11 12  2  0
 12 13  1  0
 13 14  2  0
 14 15  1  0
 14 16  1  0
 16 17  2  0
 17 18  1  0
 17 19  1  0
 19 20  2  0
  3  4  1  0
  4  5  1  0
  4  6  1  0
  6  7  1  0
  6  1  1  0
 20 10  1  0
 20 13  1  0
 33 34  1  0
 33 35  1  0
 30 31  1  0
 15 21  1  0
 15 22  1  0
  5  8  1  0
  7  9  1  0
M  END
> <minimizedAffinity>
-9.48542

> <CNNscore>
0.0915663391

> <CNNaffinity>
5.3068404198

> <CNN_VS>
0.4859279394

> <CNNaffinity_variance>
0.7399440408

$$$$



 38 40  0  0  0  0  0  0  0  0999 V2000
   19.2697    8.9117    2.8334 C   0  0  0  0  0  0  0  0  0  0  0  0
   20.6881    8.6730    2.8998 O   0  0  0  0  0  0  0  0  0  0  0  0
   20.9103    7.6402    3.8834 C   0  0  0  0  0  0  0  0  0  0  0  0
   19.5526    7.2700    4.4976 C   0  0  0  0  0  0  0  0  0  0  0  0
   18.9559    6.1390    3.8218 O   0  0  0  0  0  0  0  0  0  0  0  0
   18.7139    8.4960    4.1895 C   0  0  0  0  0  0  0  0  0  0  0  0
   17.3280    8.1873    4.1298 O   0  0  0  0  0  0  0  0  0  0  0  0
   18.8680    6.3368    2.8762 H   0  0  0  0  0  0  0  0  0  0  0  0
   17.1801    7.4905    3.4714 H   0  0  0  0  0  0  0  0  0  0  0  0
   21.8795    8.0908    4.8633 N   0  0  0  0  0  0  0  0  0  0  0  0
   22.0215    9.3353    5.4073 C   0  0  0  0  0  0  0  0  0  0  0  0
   23.0558    9.4038    6.2187 N   0  0  0  0  0  0  0  0  0  0  0  0
   23.5971    8.1372    6.2112 C   0  0  0  0  0  0  0  0  0  0  0  0
   24.7143    7.5704    6.8483 C   0  0  0  0  0  0  0  0  0  0  0  0
   25.5470    8.2828    7.7035 N   0  0  0  0  0  0  0  0  0  0  0  0
   25.0151    6.2758    6.5952 N   0  0  0  0  0  0  0  0  0  0  0  0
   24.2121    5.5727    5.7645 C   0  0  0  0  0  0  0  0  0  0  0  0
   24.7000    3.7544    5.4635 Br  0  0  0  0  0  0  0  0  0  0  0  0
   23.1087    6.0074    5.1131 N   0  0  0  0  0  0  0  0  0  0  0  0
   22.8752    7.3040    5.3758 C   0  0  0  0  0  0  0  0  0  0  0  0
   25.3531    9.2265    7.9062 H   0  0  0  0  0  0  0  0  0  0  0  0
   26.3306    7.8437    8.1064 H   0  0  0  0  0  0  0  0  0  0  0  0
   18.9949   10.3659    2.4651 C   0  0  0  0  0  0  0  0  0  0  0  0
   19.0102   10.5191    1.0533 O   0  0  0  0  0  0  0  0  0  0  0  0
   18.8690   12.0079    0.4343 S   0  0  0  0  0  0  0  0  0  0  0  0
   18.7371   12.9508    1.5177 O   0  0  0  0  0  0  0  0  0  0  0  0
   19.8905   12.1876   -0.5770 O   0  0  0  0  0  0  0  0  0  0  0  0
   17.0129   10.9647   -1.2124 C   0  0  0  0  0  0  0  0  0  0  0  0
   17.7656   10.0795   -1.5917 O   0  0  0  0  0  0  0  0  0  0  0  0
   17.4361   12.0239   -0.3907 N   0  0  0  0  0  0  0  0  0  0  0  0
   16.8522   12.8117   -0.3023 H   0  0  0  0  0  0  0  0  0  0  0  0
   15.4951   10.9852   -1.5096 C   0  0  0  0  0  0  0  0  0  0  0  0
   14.7688   10.6759   -0.2543 N   0  0  0  0  0  0  0  0  0  0  0  0
   15.0372    9.7483    0.0740 H   0  0  0  0  0  0  0  0  0  0  0  0
   13.7641   10.6974   -0.4287 H   0  0  0  0  0  0  0  0  0  0  0  0
   13.6025    9.7563   -2.6907 C   0  0  0  0  0  0  0  0  0  0  0  0
   15.1152   10.0081   -2.6480 C   0  0  0  0  0  0  0  0  0  0  0  0
   15.5557   10.5402   -4.0193 C   0  0  0  0  0  0  0  0  0  0  0  0
 36 37  1  0
 37 38  1  0
 37 32  1  0
 32 33  1  0
 32 28  1  0
 28 29  2  0
 28 30  1  0
 30 25  1  0
 25 26  2  0
 25 27  2  0
 25 24  1  0
 24 23  1  0
  1 23  1  0
  1  2  1  0
  2  3  1  0
  3 10  1  0
 10 11  1  0
 11 12  2  0
 12 13  1  0
 13 14  2  0
 14 15  1  0
 14 16  1  0
 16 17  2  0
 17 18  1  0
 17 19  1  0
 19 20  2  0
  3  4  1  0
  4  5  1  0
  4  6  1  0
  6  7  1  0
  6  1  1  0
 20 10  1  0
 20 13  1  0
 33 34  1  0
 33 35  1  0
 30 31  1  0
 15 21  1  0
 15 22  1  0
  5  8  1  0
  7  9  1  0
M  END
> <minimizedAffinity>
-9.79495

> <CNNscore>
0.0709189549

> <CNNaffinity>
4.5027976036

> <CNN_VS>
0.3193337023

> <CNNaffinity_variance>
0.4080652297

$$$$



 38 40  0  0  0  0  0  0  0  0999 V2000
   20.2693   10.4274    2.4543 C   0  0  0  0  0  0  0  0  0  0  0  0
   21.3067    9.8522    3.2706 O   0  0  0  0  0  0  0  0  0  0  0  0
   22.3298    9.3503    2.3847 C   0  0  0  0  0  0  0  0  0  0  0  0
   21.8604    9.5777    0.9406 C   0  0  0  0  0  0  0  0  0  0  0  0
   22.3708   10.8213    0.4069 O   0  0  0  0  0  0  0  0  0  0  0  0
   20.3593    9.7205    1.1079 C   0  0  0  0  0  0  0  0  0  0  0  0
   19.7809   10.4864    0.0598 O   0  0  0  0  0  0  0  0  0  0  0  0
   22.0998   11.5549    0.9808 H   0  0  0  0  0  0  0  0  0  0  0  0
   20.2104   11.3552    0.0193 H   0  0  0  0  0  0  0  0  0  0  0  0
   22.6056    7.9590    2.6859 N   0  0  0  0  0  0  0  0  0  0  0  0
   22.3319    6.8558    1.9290 C   0  0  0  0  0  0  0  0  0  0  0  0
   22.6610    5.7404    2.5459 N   0  0  0  0  0  0  0  0  0  0  0  0
   23.1887    6.1445    3.7522 C   0  0  0  0  0  0  0  0  0  0  0  0
   23.6978    5.4413    4.8575 C   0  0  0  0  0  0  0  0  0  0  0  0
   23.7705    4.0543    4.9108 N   0  0  0  0  0  0  0  0  0  0  0  0
   24.1101    6.1448    5.9372 N   0  0  0  0  0  0  0  0  0  0  0  0
   24.0438    7.4951    5.8968 C   0  0  0  0  0  0  0  0  0  0  0  0
   24.6485    8.4131    7.4546 Br  0  0  0  0  0  0  0  0  0  0  0  0
   23.5906    8.2732    4.8870 N   0  0  0  0  0  0  0  0  0  0  0  0
   23.1666    7.5238    3.8559 C   0  0  0  0  0  0  0  0  0  0  0  0
   23.4776    3.5160    4.1402 H   0  0  0  0  0  0  0  0  0  0  0  0
   24.1149    3.6100    5.7191 H   0  0  0  0  0  0  0  0  0  0  0  0
   18.9159   10.2881    3.1434 C   0  0  0  0  0  0  0  0  0  0  0  0
   18.4499   11.5640    3.5579 O   0  0  0  0  0  0  0  0  0  0  0  0
   16.8550   11.8394    3.5705 S   0  0  0  0  0  0  0  0  0  0  0  0
   16.6295   13.2557    3.7245 O   0  0  0  0  0  0  0  0  0  0  0  0
   16.2511   11.1135    2.4721 O   0  0  0  0  0  0  0  0  0  0  0  0
   16.0313    9.7308    5.0265 C   0  0  0  0  0  0  0  0  0  0  0  0
   15.9681    9.0057    4.0445 O   0  0  0  0  0  0  0  0  0  0  0  0
   16.2783   11.1119    4.9388 N   0  0  0  0  0  0  0  0  0  0  0  0
   16.0997   11.6718    5.7286 H   0  0  0  0  0  0  0  0  0  0  0  0
   15.9384    9.2136    6.4813 C   0  0  0  0  0  0  0  0  0  0  0  0
   17.0102    8.2104    6.6901 N   0  0  0  0  0  0  0  0  0  0  0  0
   16.8776    7.4318    6.0447 H   0  0  0  0  0  0  0  0  0  0  0  0
   16.9721    7.8669    7.6497 H   0  0  0  0  0  0  0  0  0  0  0  0
   14.6012    7.6200    7.9508 C   0  0  0  0  0  0  0  0  0  0  0  0
   14.5396    8.6338    6.8011 C   0  0  0  0  0  0  0  0  0  0  0  0
   13.5443    9.7387    7.1835 C   0  0  0  0  0  0  0  0  0  0  0  0
 36 37  1  0
 37 38  1  0
 37 32  1  0
 32 33  1  0
 32 28  1  0
 28 29  2  0
 28 30  1  0
 30 25  1  0
 25 26  2  0
 25 27  2  0
 25 24  1  0
 24 23  1  0
  1 23  1  0
  1  2  1  0
  2  3  1  0
  3 10  1  0
 10 11  1  0
 11 12  2  0
 12 13  1  0
 13 14  2  0
 14 15  1  0
 14 16  1  0
 16 17  2  0
 17 18  1  0
 17 19  1  0
 19 20  2  0
  3  4  1  0
  4  5  1  0
  4  6  1  0
  6  7  1  0
  6  1  1  0
 20 10  1  0
 20 13  1  0
 33 34  1  0
 33 35  1  0
 30 31  1  0
 15 21  1  0
 15 22  1  0
  5  8  1  0
  7  9  1  0
M  END
> <minimizedAffinity>
-8.98905

> <CNNscore>
0.0575056002

> <CNNaffinity>
5.2681722641

> <CNN_VS>
0.3029493988

> <CNNaffinity_variance>
0.0955919400

$$$$



 38 40  0  0  0  0  0  0  0  0999 V2000
   16.6307   10.8210    3.6145 C   0  0  0  0  0  0  0  0  0  0  0  0
   16.7139    9.8890    2.5200 O   0  0  0  0  0  0  0  0  0  0  0  0
   17.4546   10.5286    1.4590 C   0  0  0  0  0  0  0  0  0  0  0  0
   17.7902   11.9576    1.9092 C   0  0  0  0  0  0  0  0  0  0  0  0
   19.1009   12.0279    2.5169 O   0  0  0  0  0  0  0  0  0  0  0  0
   16.7574   12.2057    2.9924 C   0  0  0  0  0  0  0  0  0  0  0  0
   17.1984   13.1774    3.9309 O   0  0  0  0  0  0  0  0  0  0  0  0
   19.1454   11.4085    3.2620 H   0  0  0  0  0  0  0  0  0  0  0  0
   18.0438   12.8961    4.3145 H   0  0  0  0  0  0  0  0  0  0  0  0
   16.6937   10.4796    0.2256 N   0  0  0  0  0  0  0  0  0  0  0  0
   17.1001   10.8064   -1.0366 C   0  0  0  0  0  0  0  0  0  0  0  0
   16.1216   10.7057   -1.9113 N   0  0  0  0  0  0  0  0  0  0  0  0
   15.0356   10.2762   -1.1810 C   0  0  0  0  0  0  0  0  0  0  0  0
   13.7004   10.0015   -1.5235 C   0  0  0  0  0  0  0  0  0  0  0  0
   13.2049   10.1221   -2.8166 N   0  0  0  0  0  0  0  0  0  0  0  0
   12.8449    9.6304   -0.5433 N   0  0  0  0  0  0  0  0  0  0  0  0
   13.3158    9.5099    0.7188 C   0  0  0  0  0  0  0  0  0  0  0  0
   12.0495    8.9778    2.0411 Br  0  0  0  0  0  0  0  0  0  0  0  0
   14.5763    9.7310    1.1583 N   0  0  0  0  0  0  0  0  0  0  0  0
   15.3737   10.1255    0.1518 C   0  0  0  0  0  0  0  0  0  0  0  0
   13.8040   10.3905   -3.5503 H   0  0  0  0  0  0  0  0  0  0  0  0
   12.2549    9.9392   -2.9987 H   0  0  0  0  0  0  0  0  0  0  0  0
   15.3397   10.6037    4.3968 C   0  0  0  0  0  0  0  0  0  0  0  0
   15.4800    9.4864    5.2622 O   0  0  0  0  0  0  0  0  0  0  0  0
   14.1653    8.9241    6.0204 S   0  0  0  0  0  0  0  0  0  0  0  0
   13.0201    9.1092    5.1633 O   0  0  0  0  0  0  0  0  0  0  0  0
   14.4701    7.6186    6.5692 O   0  0  0  0  0  0  0  0  0  0  0  0
   14.8496    9.9654    8.4063 C   0  0  0  0  0  0  0  0  0  0  0  0
   15.7213    9.1275    8.5853 O   0  0  0  0  0  0  0  0  0  0  0  0
   13.9431    9.9041    7.3336 N   0  0  0  0  0  0  0  0  0  0  0  0
   13.1387   10.4709    7.3657 H   0  0  0  0  0  0  0  0  0  0  0  0
   14.6900   11.2354    9.2748 C   0  0  0  0  0  0  0  0  0  0  0  0
   15.7353   11.2170   10.3263 N   0  0  0  0  0  0  0  0  0  0  0  0
   15.6151   10.3897   10.9107 H   0  0  0  0  0  0  0  0  0  0  0  0
   15.6533   12.0549   10.9021 H   0  0  0  0  0  0  0  0  0  0  0  0
   12.6585    9.9656   10.1394 C   0  0  0  0  0  0  0  0  0  0  0  0
   13.2699   11.3483    9.8793 C   0  0  0  0  0  0  0  0  0  0  0  0
   13.2793   12.1293   11.2012 C   0  0  0  0  0  0  0  0  0  0  0  0
 36 37  1  0
 37 38  1  0
 37 32  1  0
 32 33  1  0
 32 28  1  0
 28 29  2  0
 28 30  1  0
 30 25  1  0
 25 26  2  0
 25 27  2  0
 25 24  1  0
 24 23  1  0
  1 23  1  0
  1  2  1  0
  2  3  1  0
  3 10  1  0
 10 11  1  0
 11 12  2  0
 12 13  1  0
 13 14  2  0
 14 15  1  0
 14 16  1  0
 16 17  2  0
 17 18  1  0
 17 19  1  0
 19 20  2  0
  3  4  1  0
  4  5  1  0
  4  6  1  0
  6  7  1  0
  6  1  1  0
 20 10  1  0
 20 13  1  0
 33 34  1  0
 33 35  1  0
 30 31  1  0
 15 21  1  0
 15 22  1  0
  5  8  1  0
  7  9  1  0
M  END
> <minimizedAffinity>
-8.91345

> <CNNscore>
0.0535686277

> <CNNaffinity>
5.3078427315

> <CNN_VS>
0.2843338549

> <CNNaffinity_variance>
0.6018513441

$$$$



 38 40  0  0  0  0  0  0  0  0999 V2000
   19.5482    8.9065    3.3394 C   0  0  0  0  0  0  0  0  0  0  0  0
   20.9703    8.9642    3.5576 O   0  0  0  0  0  0  0  0  0  0  0  0
   21.3599    7.7395    4.2148 C   0  0  0  0  0  0  0  0  0  0  0  0
   20.0913    6.9123    4.4676 C   0  0  0  0  0  0  0  0  0  0  0  0
   19.8563    5.9630    3.4020 O   0  0  0  0  0  0  0  0  0  0  0  0
   19.0014    7.9659    4.4056 C   0  0  0  0  0  0  0  0  0  0  0  0
   17.7473    7.4082    4.0373 O   0  0  0  0  0  0  0  0  0  0  0  0
   19.8021    6.4338    2.5556 H   0  0  0  0  0  0  0  0  0  0  0  0
   17.8349    6.9482    3.1878 H   0  0  0  0  0  0  0  0  0  0  0  0
   22.0987    8.0413    5.4253 N   0  0  0  0  0  0  0  0  0  0  0  0
   21.7021    8.7865    6.4988 C   0  0  0  0  0  0  0  0  0  0  0  0
   22.6587    8.9085    7.3949 N   0  0  0  0  0  0  0  0  0  0  0  0
   23.7181    8.1926    6.8827 C   0  0  0  0  0  0  0  0  0  0  0  0
   25.0238    7.9536    7.3446 C   0  0  0  0  0  0  0  0  0  0  0  0
   25.5103    8.4530    8.5471 N   0  0  0  0  0  0  0  0  0  0  0  0
   25.8612    7.2275    6.5687 N   0  0  0  0  0  0  0  0  0  0  0  0
   25.3989    6.7367    5.3962 C   0  0  0  0  0  0  0  0  0  0  0  0
   26.6379    5.7198    4.3638 Br  0  0  0  0  0  0  0  0  0  0  0  0
   24.1648    6.8885    4.8627 N   0  0  0  0  0  0  0  0  0  0  0  0
   23.3868    7.6414    5.6581 C   0  0  0  0  0  0  0  0  0  0  0  0
   24.9240    8.9848    9.1325 H   0  0  0  0  0  0  0  0  0  0  0  0
   26.4412    8.2749    8.8135 H   0  0  0  0  0  0  0  0  0  0  0  0
   18.9501   10.3089    3.3779 C   0  0  0  0  0  0  0  0  0  0  0  0
   17.5713   10.2385    3.7108 O   0  0  0  0  0  0  0  0  0  0  0  0
   16.6592   11.5614    3.5172 S   0  0  0  0  0  0  0  0  0  0  0  0
   15.8097   11.7131    4.6729 O   0  0  0  0  0  0  0  0  0  0  0  0
   17.5094   12.6502    3.0813 O   0  0  0  0  0  0  0  0  0  0  0  0
   15.1281    9.9739    1.9744 C   0  0  0  0  0  0  0  0  0  0  0  0
   15.5470    8.9568    2.5073 O   0  0  0  0  0  0  0  0  0  0  0  0
   15.6671   11.2463    2.2325 N   0  0  0  0  0  0  0  0  0  0  0  0
   15.4436   11.9839    1.6199 H   0  0  0  0  0  0  0  0  0  0  0  0
   13.9060   10.0042    1.0267 C   0  0  0  0  0  0  0  0  0  0  0  0
   13.3333    8.6381    0.9588 N   0  0  0  0  0  0  0  0  0  0  0  0
   14.0327    7.9942    0.5891 H   0  0  0  0  0  0  0  0  0  0  0  0
   12.5172    8.6416    0.3469 H   0  0  0  0  0  0  0  0  0  0  0  0
   15.5518    9.8819   -0.9132 C   0  0  0  0  0  0  0  0  0  0  0  0
   14.2752   10.5420   -0.3766 C   0  0  0  0  0  0  0  0  0  0  0  0
   13.1453   10.3029   -1.3884 C   0  0  0  0  0  0  0  0  0  0  0  0
 36 37  1  0
 37 38  1  0
 37 32  1  0
 32 33  1  0
 32 28  1  0
 28 29  2  0
 28 30  1  0
 30 25  1  0
 25 26  2  0
 25 27  2  0
 25 24  1  0
 24 23  1  0
  1 23  1  0
  1  2  1  0
  2  3  1  0
  3 10  1  0
 10 11  1  0
 11 12  2  0
 12 13  1  0
 13 14  2  0
 14 15  1  0
 14 16  1  0
 16 17  2  0
 17 18  1  0
 17 19  1  0
 19 20  2  0
  3  4  1  0
  4  5  1  0
  4  6  1  0
  6  7  1  0
  6  1  1  0
 20 10  1  0
 20 13  1  0
 33 34  1  0
 33 35  1  0
 30 31  1  0
 15 21  1  0
 15 22  1  0
  5  8  1  0
  7  9  1  0
M  END
> <minimizedAffinity>
-8.96513

> <CNNscore>
0.0448803641

> <CNNaffinity>
4.3125987053

> <CNN_VS>
0.1935510039

> <CNNaffinity_variance>
0.6842386127

$$$$



 38 40  0  0  0  0  0  0  0  0999 V2000
   19.7886   10.4333   -0.6588 C   0  0  0  0  0  0  0  0  0  0  0  0
   18.4001   10.2160   -0.9723 O   0  0  0  0  0  0  0  0  0  0  0  0
   17.6555   11.3375   -0.4515 C   0  0  0  0  0  0  0  0  0  0  0  0
   18.6401   12.2639    0.2764 C   0  0  0  0  0  0  0  0  0  0  0  0
   19.1191   13.3161   -0.5926 O   0  0  0  0  0  0  0  0  0  0  0  0
   19.8017   11.3333    0.5702 C   0  0  0  0  0  0  0  0  0  0  0  0
   21.0263   12.0420    0.7034 O   0  0  0  0  0  0  0  0  0  0  0  0
   19.5273   12.9241   -1.3804 H   0  0  0  0  0  0  0  0  0  0  0  0
   21.1898   12.5590   -0.1009 H   0  0  0  0  0  0  0  0  0  0  0  0
   16.5785   10.8650    0.3966 N   0  0  0  0  0  0  0  0  0  0  0  0
   16.5554   10.7540    1.7575 C   0  0  0  0  0  0  0  0  0  0  0  0
   15.4322   10.2207    2.1899 N   0  0  0  0  0  0  0  0  0  0  0  0
   14.6873    9.9927    1.0539 C   0  0  0  0  0  0  0  0  0  0  0  0
   13.4177    9.4294    0.8394 C   0  0  0  0  0  0  0  0  0  0  0  0
   12.6053    8.9670    1.8682 N   0  0  0  0  0  0  0  0  0  0  0  0
   12.9738    9.3013   -0.4322 N   0  0  0  0  0  0  0  0  0  0  0  0
   13.7558    9.7476   -1.4414 C   0  0  0  0  0  0  0  0  0  0  0  0
   13.0572    9.5362   -3.2027 Br  0  0  0  0  0  0  0  0  0  0  0  0
   14.9797   10.3177   -1.3522 N   0  0  0  0  0  0  0  0  0  0  0  0
   15.3832   10.3917   -0.0730 C   0  0  0  0  0  0  0  0  0  0  0  0
   12.9020    9.0468    2.8035 H   0  0  0  0  0  0  0  0  0  0  0  0
   11.7332    8.5597    1.6615 H   0  0  0  0  0  0  0  0  0  0  0  0
   20.5016    9.0994   -0.4635 C   0  0  0  0  0  0  0  0  0  0  0  0
   20.9467    8.9803    0.8799 O   0  0  0  0  0  0  0  0  0  0  0  0
   22.3054    8.1517    1.1750 S   0  0  0  0  0  0  0  0  0  0  0  0
   22.8238    7.6498   -0.0738 O   0  0  0  0  0  0  0  0  0  0  0  0
   23.1442    8.9370    2.0571 O   0  0  0  0  0  0  0  0  0  0  0  0
   22.6998    6.2116    2.9984 C   0  0  0  0  0  0  0  0  0  0  0  0
   23.9046    6.4139    3.0360 O   0  0  0  0  0  0  0  0  0  0  0  0
   21.8514    6.8360    2.0677 N   0  0  0  0  0  0  0  0  0  0  0  0
   20.9449    6.4731    1.9414 H   0  0  0  0  0  0  0  0  0  0  0  0
   21.9479    5.3217    4.0160 C   0  0  0  0  0  0  0  0  0  0  0  0
   22.8559    4.2298    4.4425 N   0  0  0  0  0  0  0  0  0  0  0  0
   23.1182    3.6695    3.6316 H   0  0  0  0  0  0  0  0  0  0  0  0
   22.3802    3.6390    5.1246 H   0  0  0  0  0  0  0  0  0  0  0  0
   20.6700    3.2477    3.2728 C   0  0  0  0  0  0  0  0  0  0  0  0
   20.6225    4.7724    3.4359 C   0  0  0  0  0  0  0  0  0  0  0  0
   19.4253    5.1260    4.3298 C   0  0  0  0  0  0  0  0  0  0  0  0
 36 37  1  0
 37 38  1  0
 37 32  1  0
 32 33  1  0
 32 28  1  0
 28 29  2  0
 28 30  1  0
 30 25  1  0
 25 26  2  0
 25 27  2  0
 25 24  1  0
 24 23  1  0
  1 23  1  0
  1  2  1  0
  2  3  1  0
  3 10  1  0
 10 11  1  0
 11 12  2  0
 12 13  1  0
 13 14  2  0
 14 15  1  0
 14 16  1  0
 16 17  2  0
 17 18  1  0
 17 19  1  0
 19 20  2  0
  3  4  1  0
  4  5  1  0
  4  6  1  0
  6  7  1  0
  6  1  1  0
 20 10  1  0
 20 13  1  0
 33 34  1  0
 33 35  1  0
 30 31  1  0
 15 21  1  0
 15 22  1  0
  5  8  1  0
  7  9  1  0
M  END
> <minimizedAffinity>
-10.09027

> <CNNscore>
0.0406614281

> <CNNaffinity>
4.1056075096

> <CNN_VS>
0.1669398695

> <CNNaffinity_variance>
1.4686907530

$$$$



 38 40  0  0  0  0  0  0  0  0999 V2000
   16.8986   10.1341    2.9857 C   0  0  0  0  0  0  0  0  0  0  0  0
   17.7015    8.9573    2.7763 O   0  0  0  0  0  0  0  0  0  0  0  0
   17.8098    8.2732    4.0426 C   0  0  0  0  0  0  0  0  0  0  0  0
   17.0812    9.1145    5.1003 C   0  0  0  0  0  0  0  0  0  0  0  0
   15.7132    8.6783    5.2745 O   0  0  0  0  0  0  0  0  0  0  0  0
   17.0568   10.4890    4.4586 C   0  0  0  0  0  0  0  0  0  0  0  0
   15.9771   11.2780    4.9396 O   0  0  0  0  0  0  0  0  0  0  0  0
   15.2514    8.7142    4.4222 H   0  0  0  0  0  0  0  0  0  0  0  0
   15.1415   10.8090    4.7886 H   0  0  0  0  0  0  0  0  0  0  0  0
   19.2049    8.0366    4.3591 N   0  0  0  0  0  0  0  0  0  0  0  0
   20.1296    8.9214    4.8355 C   0  0  0  0  0  0  0  0  0  0  0  0
   21.3230    8.3767    4.9445 N   0  0  0  0  0  0  0  0  0  0  0  0
   21.1564    7.0722    4.5350 C   0  0  0  0  0  0  0  0  0  0  0  0
   22.0439    5.9907    4.4011 C   0  0  0  0  0  0  0  0  0  0  0  0
   23.3965    6.0718    4.7110 N   0  0  0  0  0  0  0  0  0  0  0  0
   21.5681    4.8200    3.9179 N   0  0  0  0  0  0  0  0  0  0  0  0
   20.2536    4.7294    3.6128 C   0  0  0  0  0  0  0  0  0  0  0  0
   19.6602    3.0458    2.9433 Br  0  0  0  0  0  0  0  0  0  0  0  0
   19.3099    5.6936    3.7163 N   0  0  0  0  0  0  0  0  0  0  0  0
   19.8424    6.8402    4.1705 C   0  0  0  0  0  0  0  0  0  0  0  0
   23.7712    6.9108    5.0643 H   0  0  0  0  0  0  0  0  0  0  0  0
   23.9799    5.2901    4.5771 H   0  0  0  0  0  0  0  0  0  0  0  0
   17.3239   11.2417    2.0274 C   0  0  0  0  0  0  0  0  0  0  0  0
   17.9519   10.6788    0.8847 O   0  0  0  0  0  0  0  0  0  0  0  0
   18.6109   11.6758   -0.2068 S   0  0  0  0  0  0  0  0  0  0  0  0
   18.7132   12.9937    0.3701 O   0  0  0  0  0  0  0  0  0  0  0  0
   19.7748   11.0310   -0.7795 O   0  0  0  0  0  0  0  0  0  0  0  0
   16.7737   10.6797   -1.9032 C   0  0  0  0  0  0  0  0  0  0  0  0
   17.0505    9.5248   -1.6139 O   0  0  0  0  0  0  0  0  0  0  0  0
   17.5204   11.7793   -1.4455 N   0  0  0  0  0  0  0  0  0  0  0  0
   17.3879   12.6514   -1.8827 H   0  0  0  0  0  0  0  0  0  0  0  0
   15.5278   11.0821   -2.7267 C   0  0  0  0  0  0  0  0  0  0  0  0
   14.4782   11.5485   -1.7889 N   0  0  0  0  0  0  0  0  0  0  0  0
   14.2323   10.7921   -1.1503 H   0  0  0  0  0  0  0  0  0  0  0  0
   13.6519   11.8305   -2.3162 H   0  0  0  0  0  0  0  0  0  0  0  0
   13.5121    9.7157   -3.4732 C   0  0  0  0  0  0  0  0  0  0  0  0
   15.0252    9.9223   -3.6197 C   0  0  0  0  0  0  0  0  0  0  0  0
   15.3374   10.1746   -5.1017 C   0  0  0  0  0  0  0  0  0  0  0  0
 36 37  1  0
 37 38  1  0
 37 32  1  0
 32 33  1  0
 32 28  1  0
 28 29  2  0
 28 30  1  0
 30 25  1  0
 25 26  2  0
 25 27  2  0
 25 24  1  0
 24 23  1  0
  1 23  1  0
  1  2  1  0
  2  3  1  0
  3 10  1  0
 10 11  1  0
 11 12  2  0
 12 13  1  0
 13 14  2  0
 14 15  1  0
 14 16  1  0
 16 17  2  0
 17 18  1  0
 17 19  1  0
 19 20  2  0
  3  4  1  0
  4  5  1  0
  4  6  1  0
  6  7  1  0
  6  1  1  0
 20 10  1  0
 20 13  1  0
 33 34  1  0
 33 35  1  0
 30 31  1  0
 15 21  1  0
 15 22  1  0
  5  8  1  0
  7  9  1  0
M  END
> <minimizedAffinity>
-9.18952

> <CNNscore>
0.0393441245

> <CNNaffinity>
4.0135555267

> <CNN_VS>
0.1579098254

> <CNNaffinity_variance>
1.2950315475

$$$$
