


 25 28  0  0  0  0  0  0  0  0999 V2000
   25.9336   48.8760    1.8321 C   0  0  0  0  0  0  0  0  0  0  0  0
   25.5324   48.0034    2.8318 C   0  0  0  0  0  0  0  0  0  0  0  0
   25.2673   46.7493    2.3484 N   0  0  0  0  0  0  0  0  0  0  0  0
   25.4862   46.8353    1.0556 C   0  0  0  0  0  0  0  0  0  0  0  0
   25.3735   45.8685    0.0374 C   0  0  0  0  0  0  0  0  0  0  0  0
   25.6397   46.2165   -1.2259 C   0  0  0  0  0  0  0  0  0  0  0  0
   26.0489   47.6282   -1.5167 C   0  0  0  0  0  0  0  0  0  0  0  0
   26.1671   48.5362   -0.5863 N   0  0  0  0  0  0  0  0  0  0  0  0
   25.8872   48.1058    0.6804 N   0  0  0  0  0  0  0  0  0  0  0  0
   26.5625   52.3362    3.2230 C   0  0  0  0  0  0  0  0  0  0  0  0
   27.0198   53.0132    2.0902 C   0  0  0  0  0  0  0  0  0  0  0  0
   27.1203   52.3319    0.8787 C   0  0  0  0  0  0  0  0  0  0  0  0
   27.6860   53.1664   -0.5176 Cl  0  0  0  0  0  0  0  0  0  0  0  0
   26.7714   50.9852    0.7820 C   0  0  0  0  0  0  0  0  0  0  0  0
   26.3019   50.2920    1.9041 C   0  0  0  0  0  0  0  0  0  0  0  0
   26.2085   50.9803    3.1235 C   0  0  0  0  0  0  0  0  0  0  0  0
   25.2960   52.6241    5.4591 C   0  0  0  0  0  0  0  0  0  0  0  0
   26.4354   53.0070    4.5511 C   0  0  0  0  0  0  0  0  0  0  0  0
   27.2547   53.8601    4.8850 O   0  0  0  0  0  0  0  0  0  0  0  0
   26.3113   47.9614   -2.8264 N   0  0  0  0  0  0  0  0  0  0  0  0
   26.4295   47.2411   -3.4870 H   0  0  0  0  0  0  0  0  0  0  0  0
   26.4191   49.3397   -3.2637 C   0  0  0  0  0  0  0  0  0  0  0  0
   27.8172   49.7207   -3.6659 C   0  0  0  0  0  0  0  0  0  0  0  0
   28.7494   50.4951   -2.7638 C   0  0  0  0  0  0  0  0  0  0  0  0
   28.2224   51.1314   -4.0237 C   0  0  0  0  0  0  0  0  0  0  0  0
 17 18  1  0
 18 19  2  0
 18 10  1  0
 10 11  2  0
 11 12  1  0
 12 13  1  0
 12 14  2  0
 14 15  1  0
 15  1  1  0
  1  2  2  0
  2  3  1  0
  3  4  2  0
  4  5  1  0
  5  6  2  0
  6  7  1  0
  7 20  1  0
 20 22  1  0
 22 23  1  0
 23 24  1  0
 24 25  1  0
  7  8  2  0
  8  9  1  0
 15 16  2  0
 16 10  1  0
  9  1  1  0
  9  4  1  0
 25 23  1  0
 20 21  1  0
M  END
> <minimizedAffinity>
-9.81517

> <CNNscore>
0.9593419433

> <CNNaffinity>
7.9018616676

> <CNN_VS>
7.5805873871

> <CNNaffinity_variance>
0.0928762779

$$$$



 25 28  0  0  0  0  0  0  0  0999 V2000
   26.8509   51.6266   -0.1060 C   0  0  0  0  0  0  0  0  0  0  0  0
   27.4819   52.7568   -0.6020 C   0  0  0  0  0  0  0  0  0  0  0  0
   27.5773   52.7386   -1.9686 N   0  0  0  0  0  0  0  0  0  0  0  0
   27.0242   51.6021   -2.3279 C   0  0  0  0  0  0  0  0  0  0  0  0
   26.8375   51.0327   -3.6027 C   0  0  0  0  0  0  0  0  0  0  0  0
   26.2532   49.8343   -3.7033 C   0  0  0  0  0  0  0  0  0  0  0  0
   25.8168   49.1346   -2.4524 C   0  0  0  0  0  0  0  0  0  0  0  0
   25.9733   49.6492   -1.2630 N   0  0  0  0  0  0  0  0  0  0  0  0
   26.5696   50.8788   -1.2389 N   0  0  0  0  0  0  0  0  0  0  0  0
   26.2939   51.8604    3.6274 C   0  0  0  0  0  0  0  0  0  0  0  0
   25.9596   50.5415    3.9426 C   0  0  0  0  0  0  0  0  0  0  0  0
   25.9176   49.5845    2.9303 C   0  0  0  0  0  0  0  0  0  0  0  0
   25.5036   47.9586    3.3190 Cl  0  0  0  0  0  0  0  0  0  0  0  0
   26.2041   49.9253    1.6088 C   0  0  0  0  0  0  0  0  0  0  0  0
   26.5505   51.2399    1.2747 C   0  0  0  0  0  0  0  0  0  0  0  0
   26.5852   52.2016    2.2961 C   0  0  0  0  0  0  0  0  0  0  0  0
   25.2661   53.0075    5.7046 C   0  0  0  0  0  0  0  0  0  0  0  0
   26.3529   52.9336    4.6640 C   0  0  0  0  0  0  0  0  0  0  0  0
   27.2797   53.7408    4.6551 O   0  0  0  0  0  0  0  0  0  0  0  0
   25.2234   47.8993   -2.5839 N   0  0  0  0  0  0  0  0  0  0  0  0
   24.2732   47.8514   -2.8366 H   0  0  0  0  0  0  0  0  0  0  0  0
   25.9538   46.6666   -2.3619 C   0  0  0  0  0  0  0  0  0  0  0  0
   25.4600   45.8982   -1.1673 C   0  0  0  0  0  0  0  0  0  0  0  0
   24.5377   46.4953   -0.1302 C   0  0  0  0  0  0  0  0  0  0  0  0
   25.9552   46.1423    0.2390 C   0  0  0  0  0  0  0  0  0  0  0  0
 17 18  1  0
 18 19  2  0
 18 10  1  0
 10 11  2  0
 11 12  1  0
 12 13  1  0
 12 14  2  0
 14 15  1  0
 15  1  1  0
  1  2  2  0
  2  3  1  0
  3  4  2  0
  4  5  1  0
  5  6  2  0
  6  7  1  0
  7 20  1  0
 20 22  1  0
 22 23  1  0
 23 24  1  0
 24 25  1  0
  7  8  2  0
  8  9  1  0
 15 16  2  0
 16 10  1  0
  9  1  1  0
  9  4  1  0
 25 23  1  0
 20 21  1  0
M  END
> <minimizedAffinity>
-8.73185

> <CNNscore>
0.8569638729

> <CNNaffinity>
7.5572428703

> <CNN_VS>
6.4762840271

> <CNNaffinity_variance>
0.0613701046

$$$$



 25 28  0  0  0  0  0  0  0  0999 V2000
   26.9208   52.5037    0.6321 C   0  0  0  0  0  0  0  0  0  0  0  0
   27.5796   53.4589    1.3906 C   0  0  0  0  0  0  0  0  0  0  0  0
   27.6005   54.6833    0.7765 N   0  0  0  0  0  0  0  0  0  0  0  0
   26.9731   54.4974   -0.3631 C   0  0  0  0  0  0  0  0  0  0  0  0
   26.6902   55.3918   -1.4138 C   0  0  0  0  0  0  0  0  0  0  0  0
   26.0426   54.9452   -2.4949 C   0  0  0  0  0  0  0  0  0  0  0  0
   25.6397   53.5033   -2.5529 C   0  0  0  0  0  0  0  0  0  0  0  0
   25.8852   52.6610   -1.5864 N   0  0  0  0  0  0  0  0  0  0  0  0
   26.5423   53.1904   -0.5112 N   0  0  0  0  0  0  0  0  0  0  0  0
   26.4612   48.7907    0.0798 C   0  0  0  0  0  0  0  0  0  0  0  0
   26.2294   48.3417    1.3819 C   0  0  0  0  0  0  0  0  0  0  0  0
   26.2263   49.2576    2.4322 C   0  0  0  0  0  0  0  0  0  0  0  0
   25.9423   48.7035    4.0380 Cl  0  0  0  0  0  0  0  0  0  0  0  0
   26.4515   50.6143    2.2015 C   0  0  0  0  0  0  0  0  0  0  0  0
   26.6762   51.0849    0.9023 C   0  0  0  0  0  0  0  0  0  0  0  0
   26.6849   50.1582   -0.1515 C   0  0  0  0  0  0  0  0  0  0  0  0
   25.5645   46.6656   -1.0894 C   0  0  0  0  0  0  0  0  0  0  0  0
   26.4814   47.8609   -1.0885 C   0  0  0  0  0  0  0  0  0  0  0  0
   27.2426   48.0782   -2.0286 O   0  0  0  0  0  0  0  0  0  0  0  0
   24.9796   53.0682   -3.6800 N   0  0  0  0  0  0  0  0  0  0  0  0
   24.0918   53.4406   -3.8861 H   0  0  0  0  0  0  0  0  0  0  0  0
   25.5503   52.0788   -4.5731 C   0  0  0  0  0  0  0  0  0  0  0  0
   25.7396   50.7375   -3.9198 C   0  0  0  0  0  0  0  0  0  0  0  0
   25.4607   49.4322   -4.6277 C   0  0  0  0  0  0  0  0  0  0  0  0
   24.5917   49.8621   -3.4744 C   0  0  0  0  0  0  0  0  0  0  0  0
 17 18  1  0
 18 19  2  0
 18 10  1  0
 10 11  2  0
 11 12  1  0
 12 13  1  0
 12 14  2  0
 14 15  1  0
 15  1  1  0
  1  2  2  0
  2  3  1  0
  3  4  2  0
  4  5  1  0
  5  6  2  0
  6  7  1  0
  7 20  1  0
 20 22  1  0
 22 23  1  0
 23 24  1  0
 24 25  1  0
  7  8  2  0
  8  9  1  0
 15 16  2  0
 16 10  1  0
  9  1  1  0
  9  4  1  0
 25 23  1  0
 20 21  1  0
M  END
> <minimizedAffinity>
-7.57416

> <CNNscore>
0.8126312494

> <CNNaffinity>
7.2741775513

> <CNN_VS>
5.9112238884

> <CNNaffinity_variance>
0.0491350628

$$$$



 25 28  0  0  0  0  0  0  0  0999 V2000
   26.3558   49.5599    1.1423 C   0  0  0  0  0  0  0  0  0  0  0  0
   26.1880   49.6713    2.5138 C   0  0  0  0  0  0  0  0  0  0  0  0
   25.6811   48.5256    3.0681 N   0  0  0  0  0  0  0  0  0  0  0  0
   25.5188   47.7061    2.0538 C   0  0  0  0  0  0  0  0  0  0  0  0
   25.0263   46.3873    2.0066 C   0  0  0  0  0  0  0  0  0  0  0  0
   24.9412   45.7638    0.8269 C   0  0  0  0  0  0  0  0  0  0  0  0
   25.3726   46.4922   -0.4093 C   0  0  0  0  0  0  0  0  0  0  0  0
   25.8394   47.7111   -0.3854 N   0  0  0  0  0  0  0  0  0  0  0  0
   25.9051   48.2807    0.8552 N   0  0  0  0  0  0  0  0  0  0  0  0
   27.2830   52.8605   -0.4543 C   0  0  0  0  0  0  0  0  0  0  0  0
   27.8235   52.4394   -1.6714 C   0  0  0  0  0  0  0  0  0  0  0  0
   27.8817   51.0774   -1.9607 C   0  0  0  0  0  0  0  0  0  0  0  0
   28.5498   50.5583   -3.4608 Cl  0  0  0  0  0  0  0  0  0  0  0  0
   27.4088   50.1304   -1.0529 C   0  0  0  0  0  0  0  0  0  0  0  0
   26.8550   50.5334    0.1681 C   0  0  0  0  0  0  0  0  0  0  0  0
   26.8043   51.9055    0.4581 C   0  0  0  0  0  0  0  0  0  0  0  0
   26.4237   55.2440   -0.9710 C   0  0  0  0  0  0  0  0  0  0  0  0
   27.1952   54.3039   -0.0820 C   0  0  0  0  0  0  0  0  0  0  0  0
   27.7518   54.7065    0.9372 O   0  0  0  0  0  0  0  0  0  0  0  0
   25.2689   45.8295   -1.6116 N   0  0  0  0  0  0  0  0  0  0  0  0
   24.9594   44.8949   -1.6155 H   0  0  0  0  0  0  0  0  0  0  0  0
   25.6011   46.4644   -2.8721 C   0  0  0  0  0  0  0  0  0  0  0  0
   24.4521   47.2341   -3.4629 C   0  0  0  0  0  0  0  0  0  0  0  0
   24.4783   47.8050   -4.8614 C   0  0  0  0  0  0  0  0  0  0  0  0
   24.4758   48.7300   -3.6721 C   0  0  0  0  0  0  0  0  0  0  0  0
 17 18  1  0
 18 19  2  0
 18 10  1  0
 10 11  2  0
 11 12  1  0
 12 13  1  0
 12 14  2  0
 14 15  1  0
 15  1  1  0
  1  2  2  0
  2  3  1  0
  3  4  2  0
  4  5  1  0
  5  6  2  0
  6  7  1  0
  7 20  1  0
 20 22  1  0
 22 23  1  0
 23 24  1  0
 24 25  1  0
  7  8  2  0
  8  9  1  0
 15 16  2  0
 16 10  1  0
  9  1  1  0
  9  4  1  0
 25 23  1  0
 20 21  1  0
M  END
> <minimizedAffinity>
-8.54336

> <CNNscore>
0.8100335598

> <CNNaffinity>
7.7999134064

> <CNN_VS>
6.3181915283

> <CNNaffinity_variance>
0.3212092221

$$$$



 25 28  0  0  0  0  0  0  0  0999 V2000
   25.9317   48.8396    1.9111 C   0  0  0  0  0  0  0  0  0  0  0  0
   25.6176   47.9716    2.9452 C   0  0  0  0  0  0  0  0  0  0  0  0
   25.3222   46.7127    2.4926 N   0  0  0  0  0  0  0  0  0  0  0  0
   25.4360   46.7912    1.1859 C   0  0  0  0  0  0  0  0  0  0  0  0
   25.2478   45.8169    0.1861 C   0  0  0  0  0  0  0  0  0  0  0  0
   25.4095   46.1579   -1.0966 C   0  0  0  0  0  0  0  0  0  0  0  0
   25.7852   47.5699   -1.4282 C   0  0  0  0  0  0  0  0  0  0  0  0
   25.9722   48.4848   -0.5161 N   0  0  0  0  0  0  0  0  0  0  0  0
   25.7977   48.0614    0.7717 N   0  0  0  0  0  0  0  0  0  0  0  0
   26.5609   52.3356    3.2093 C   0  0  0  0  0  0  0  0  0  0  0  0
   27.0061   52.9855    2.0559 C   0  0  0  0  0  0  0  0  0  0  0  0
   27.0983   52.2743    0.8609 C   0  0  0  0  0  0  0  0  0  0  0  0
   27.6490   53.0753   -0.5607 Cl  0  0  0  0  0  0  0  0  0  0  0  0
   26.7531   50.9245    0.8011 C   0  0  0  0  0  0  0  0  0  0  0  0
   26.2958   50.2582    1.9443 C   0  0  0  0  0  0  0  0  0  0  0  0
   26.2106   50.9766    3.1468 C   0  0  0  0  0  0  0  0  0  0  0  0
   25.3176   52.6698    5.4519 C   0  0  0  0  0  0  0  0  0  0  0  0
   26.4431   53.0391    4.5212 C   0  0  0  0  0  0  0  0  0  0  0  0
   27.2585   53.9075    4.8236 O   0  0  0  0  0  0  0  0  0  0  0  0
   25.9394   47.8958   -2.7569 N   0  0  0  0  0  0  0  0  0  0  0  0
   26.7564   47.6101   -3.2260 H   0  0  0  0  0  0  0  0  0  0  0  0
   24.9366   48.6464   -3.4872 C   0  0  0  0  0  0  0  0  0  0  0  0
   23.8295   47.7809   -4.0228 C   0  0  0  0  0  0  0  0  0  0  0  0
   24.0268   46.3291   -4.3914 C   0  0  0  0  0  0  0  0  0  0  0  0
   23.7416   47.3452   -5.4667 C   0  0  0  0  0  0  0  0  0  0  0  0
 17 18  1  0
 18 19  2  0
 18 10  1  0
 10 11  2  0
 11 12  1  0
 12 13  1  0
 12 14  2  0
 14 15  1  0
 15  1  1  0
  1  2  2  0
  2  3  1  0
  3  4  2  0
  4  5  1  0
  5  6  2  0
  6  7  1  0
  7 20  1  0
 20 22  1  0
 22 23  1  0
 23 24  1  0
 24 25  1  0
  7  8  2  0
  8  9  1  0
 15 16  2  0
 16 10  1  0
  9  1  1  0
  9  4  1  0
 25 23  1  0
 20 21  1  0
M  END
> <minimizedAffinity>
-9.47278

> <CNNscore>
0.7944421172

> <CNNaffinity>
7.4369292259

> <CNN_VS>
5.9082098007

> <CNNaffinity_variance>
0.1365558505

$$$$



 25 28  0  0  0  0  0  0  0  0999 V2000
   26.8438   50.9880   -0.0496 C   0  0  0  0  0  0  0  0  0  0  0  0
   27.5281   51.6335    0.9686 C   0  0  0  0  0  0  0  0  0  0  0  0
   27.6583   52.9770    0.7340 N   0  0  0  0  0  0  0  0  0  0  0  0
   27.0738   53.1726   -0.4265 C   0  0  0  0  0  0  0  0  0  0  0  0
   26.8997   54.3487   -1.1820 C   0  0  0  0  0  0  0  0  0  0  0  0
   26.2751   54.2802   -2.3622 C   0  0  0  0  0  0  0  0  0  0  0  0
   25.7811   52.9501   -2.8434 C   0  0  0  0  0  0  0  0  0  0  0  0
   25.9253   51.8507   -2.1545 N   0  0  0  0  0  0  0  0  0  0  0  0
   26.5651   51.9992   -0.9559 N   0  0  0  0  0  0  0  0  0  0  0  0
   26.2470   47.6122   -1.6468 C   0  0  0  0  0  0  0  0  0  0  0  0
   25.8479   46.8498   -0.5467 C   0  0  0  0  0  0  0  0  0  0  0  0
   25.7779   47.4460    0.7110 C   0  0  0  0  0  0  0  0  0  0  0  0
   25.2876   46.5052    2.0677 Cl  0  0  0  0  0  0  0  0  0  0  0  0
   26.1009   48.7912    0.8862 C   0  0  0  0  0  0  0  0  0  0  0  0
   26.4938   49.5741   -0.2059 C   0  0  0  0  0  0  0  0  0  0  0  0
   26.5691   48.9681   -1.4694 C   0  0  0  0  0  0  0  0  0  0  0  0
   26.0315   45.5742   -3.2238 C   0  0  0  0  0  0  0  0  0  0  0  0
   26.3462   47.0332   -3.0197 C   0  0  0  0  0  0  0  0  0  0  0  0
   26.6839   47.7479   -3.9608 O   0  0  0  0  0  0  0  0  0  0  0  0
   25.1469   52.9066   -4.0646 N   0  0  0  0  0  0  0  0  0  0  0  0
   24.2302   53.2579   -4.1383 H   0  0  0  0  0  0  0  0  0  0  0  0
   25.7864   52.3599   -5.2455 C   0  0  0  0  0  0  0  0  0  0  0  0
   27.2367   52.7414   -5.3580 C   0  0  0  0  0  0  0  0  0  0  0  0
   27.7479   53.7379   -6.3719 C   0  0  0  0  0  0  0  0  0  0  0  0
   28.1295   52.2850   -6.4880 C   0  0  0  0  0  0  0  0  0  0  0  0
 17 18  1  0
 18 19  2  0
 18 10  1  0
 10 11  2  0
 11 12  1  0
 12 13  1  0
 12 14  2  0
 14 15  1  0
 15  1  1  0
  1  2  2  0
  2  3  1  0
  3  4  2  0
  4  5  1  0
  5  6  2  0
  6  7  1  0
  7 20  1  0
 20 22  1  0
 22 23  1  0
 23 24  1  0
 24 25  1  0
  7  8  2  0
  8  9  1  0
 15 16  2  0
 16 10  1  0
  9  1  1  0
  9  4  1  0
 25 23  1  0
 20 21  1  0
M  END
> <minimizedAffinity>
-7.98599

> <CNNscore>
0.7803153992

> <CNNaffinity>
7.3136429787

> <CNN_VS>
5.7069482803

> <CNNaffinity_variance>
0.3073002398

$$$$



 25 28  0  0  0  0  0  0  0  0999 V2000
   27.0232   53.0153    0.3971 C   0  0  0  0  0  0  0  0  0  0  0  0
   27.2339   54.1422    1.1764 C   0  0  0  0  0  0  0  0  0  0  0  0
   27.1264   53.8731    2.5153 N   0  0  0  0  0  0  0  0  0  0  0  0
   26.8376   52.5927    2.5776 C   0  0  0  0  0  0  0  0  0  0  0  0
   26.6050   51.7552    3.6860 C   0  0  0  0  0  0  0  0  0  0  0  0
   26.3056   50.4683    3.4807 C   0  0  0  0  0  0  0  0  0  0  0  0
   26.2259   49.9595    2.0737 C   0  0  0  0  0  0  0  0  0  0  0  0
   26.4462   50.7174    1.0340 N   0  0  0  0  0  0  0  0  0  0  0  0
   26.7545   52.0176    1.3213 N   0  0  0  0  0  0  0  0  0  0  0  0
   26.4367   53.7009   -3.2756 C   0  0  0  0  0  0  0  0  0  0  0  0
   27.0561   52.5979   -3.8676 C   0  0  0  0  0  0  0  0  0  0  0  0
   27.6627   51.6375   -3.0602 C   0  0  0  0  0  0  0  0  0  0  0  0
   28.4280   50.2784   -3.7905 Cl  0  0  0  0  0  0  0  0  0  0  0  0
   27.6601   51.7626   -1.6714 C   0  0  0  0  0  0  0  0  0  0  0  0
   27.0362   52.8561   -1.0591 C   0  0  0  0  0  0  0  0  0  0  0  0
   26.4322   53.8241   -1.8762 C   0  0  0  0  0  0  0  0  0  0  0  0
   25.6957   56.1653   -3.5298 C   0  0  0  0  0  0  0  0  0  0  0  0
   25.7725   54.7666   -4.0838 C   0  0  0  0  0  0  0  0  0  0  0  0
   25.2969   54.4918   -5.1833 O   0  0  0  0  0  0  0  0  0  0  0  0
   25.9100   48.6321    1.8902 N   0  0  0  0  0  0  0  0  0  0  0  0
   25.2140   48.2253    2.4554 H   0  0  0  0  0  0  0  0  0  0  0  0
   26.5697   47.8144    0.8910 C   0  0  0  0  0  0  0  0  0  0  0  0
   26.1164   46.3806    0.9127 C   0  0  0  0  0  0  0  0  0  0  0  0
   25.4551   45.7101   -0.2687 C   0  0  0  0  0  0  0  0  0  0  0  0
   24.6643   45.9706    0.9870 C   0  0  0  0  0  0  0  0  0  0  0  0
 17 18  1  0
 18 19  2  0
 18 10  1  0
 10 11  2  0
 11 12  1  0
 12 13  1  0
 12 14  2  0
 14 15  1  0
 15  1  1  0
  1  2  2  0
  2  3  1  0
  3  4  2  0
  4  5  1  0
  5  6  2  0
  6  7  1  0
  7 20  1  0
 20 22  1  0
 22 23  1  0
 23 24  1  0
 24 25  1  0
  7  8  2  0
  8  9  1  0
 15 16  2  0
 16 10  1  0
  9  1  1  0
  9  4  1  0
 25 23  1  0
 20 21  1  0
M  END
> <minimizedAffinity>
-9.73474

> <CNNscore>
0.7621931434

> <CNNaffinity>
7.1630992889

> <CNN_VS>
5.4596652985

> <CNNaffinity_variance>
0.0237450507

$$$$



 25 28  0  0  0  0  0  0  0  0999 V2000
   25.8851   49.0350    2.2959 C   0  0  0  0  0  0  0  0  0  0  0  0
   25.4864   47.9858    3.1094 C   0  0  0  0  0  0  0  0  0  0  0  0
   25.3197   46.8211    2.4076 N   0  0  0  0  0  0  0  0  0  0  0  0
   25.5975   47.1374    1.1628 C   0  0  0  0  0  0  0  0  0  0  0  0
   25.5927   46.3543   -0.0081 C   0  0  0  0  0  0  0  0  0  0  0  0
   25.9008   46.9257   -1.1770 C   0  0  0  0  0  0  0  0  0  0  0  0
   26.2405   48.3847   -1.2021 C   0  0  0  0  0  0  0  0  0  0  0  0
   26.2587   49.1252   -0.1272 N   0  0  0  0  0  0  0  0  0  0  0  0
   25.9416   48.4715    1.0305 N   0  0  0  0  0  0  0  0  0  0  0  0
   26.9993   52.6322    1.9476 C   0  0  0  0  0  0  0  0  0  0  0  0
   26.7031   53.1399    3.2146 C   0  0  0  0  0  0  0  0  0  0  0  0
   26.1394   52.3011    4.1742 C   0  0  0  0  0  0  0  0  0  0  0  0
   25.7724   52.9277    5.7359 Cl  0  0  0  0  0  0  0  0  0  0  0  0
   25.8670   50.9639    3.8872 C   0  0  0  0  0  0  0  0  0  0  0  0
   26.1657   50.4344    2.6261 C   0  0  0  0  0  0  0  0  0  0  0  0
   26.7272   51.2842    1.6608 C   0  0  0  0  0  0  0  0  0  0  0  0
   27.6041   52.9701   -0.5438 C   0  0  0  0  0  0  0  0  0  0  0  0
   27.6003   53.4787    0.8742 C   0  0  0  0  0  0  0  0  0  0  0  0
   28.0842   54.5722    1.1581 O   0  0  0  0  0  0  0  0  0  0  0  0
   26.5480   48.9493   -2.4195 N   0  0  0  0  0  0  0  0  0  0  0  0
   27.4570   49.2969   -2.5677 H   0  0  0  0  0  0  0  0  0  0  0  0
   25.5753   49.0482   -3.4902 C   0  0  0  0  0  0  0  0  0  0  0  0
   25.2613   50.4692   -3.8691 C   0  0  0  0  0  0  0  0  0  0  0  0
   25.6164   51.6500   -2.9961 C   0  0  0  0  0  0  0  0  0  0  0  0
   24.1712   51.2820   -3.2108 C   0  0  0  0  0  0  0  0  0  0  0  0
 17 18  1  0
 18 19  2  0
 18 10  1  0
 10 11  2  0
 11 12  1  0
 12 13  1  0
 12 14  2  0
 14 15  1  0
 15  1  1  0
  1  2  2  0
  2  3  1  0
  3  4  2  0
  4  5  1  0
  5  6  2  0
  6  7  1  0
  7 20  1  0
 20 22  1  0
 22 23  1  0
 23 24  1  0
 24 25  1  0
  7  8  2  0
  8  9  1  0
 15 16  2  0
 16 10  1  0
  9  1  1  0
  9  4  1  0
 25 23  1  0
 20 21  1  0
M  END
> <minimizedAffinity>
-9.16458

> <CNNscore>
0.6194763780

> <CNNaffinity>
7.1566233635

> <CNN_VS>
4.4333591461

> <CNNaffinity_variance>
0.0784730837

$$$$



 25 28  0  0  0  0  0  0  0  0999 V2000
   26.9550   50.2613    0.7427 C   0  0  0  0  0  0  0  0  0  0  0  0
   27.1964   50.1688    2.1046 C   0  0  0  0  0  0  0  0  0  0  0  0
   27.3973   51.3962    2.6792 N   0  0  0  0  0  0  0  0  0  0  0  0
   27.2968   52.2513    1.6866 C   0  0  0  0  0  0  0  0  0  0  0  0
   27.4155   53.6547    1.6661 C   0  0  0  0  0  0  0  0  0  0  0  0
   27.2871   54.3040    0.5043 C   0  0  0  0  0  0  0  0  0  0  0  0
   27.0220   53.5139   -0.7408 C   0  0  0  0  0  0  0  0  0  0  0  0
   26.9005   52.2142   -0.7412 N   0  0  0  0  0  0  0  0  0  0  0  0
   27.0353   51.6206    0.4825 N   0  0  0  0  0  0  0  0  0  0  0  0
   25.9424   46.9427   -0.7620 C   0  0  0  0  0  0  0  0  0  0  0  0
   26.1767   47.1692   -2.1202 C   0  0  0  0  0  0  0  0  0  0  0  0
   26.6637   48.4076   -2.5343 C   0  0  0  0  0  0  0  0  0  0  0  0
   26.9507   48.6873   -4.2093 Cl  0  0  0  0  0  0  0  0  0  0  0  0
   26.9195   49.4224   -1.6128 C   0  0  0  0  0  0  0  0  0  0  0  0
   26.7000   49.2112   -0.2463 C   0  0  0  0  0  0  0  0  0  0  0  0
   26.2035   47.9649    0.1656 C   0  0  0  0  0  0  0  0  0  0  0  0
   24.4489   45.6408    0.8998 C   0  0  0  0  0  0  0  0  0  0  0  0
   25.4180   45.6402   -0.2536 C   0  0  0  0  0  0  0  0  0  0  0  0
   25.7825   44.5894   -0.7765 O   0  0  0  0  0  0  0  0  0  0  0  0
   26.9003   54.2065   -1.9244 N   0  0  0  0  0  0  0  0  0  0  0  0
   27.6800   54.6966   -2.2723 H   0  0  0  0  0  0  0  0  0  0  0  0
   25.6599   54.2371   -2.6747 C   0  0  0  0  0  0  0  0  0  0  0  0
   25.7551   53.5257   -3.9961 C   0  0  0  0  0  0  0  0  0  0  0  0
   25.4165   52.0634   -4.1683 C   0  0  0  0  0  0  0  0  0  0  0  0
   26.8410   52.5283   -4.3253 C   0  0  0  0  0  0  0  0  0  0  0  0
 17 18  1  0
 18 19  2  0
 18 10  1  0
 10 11  2  0
 11 12  1  0
 12 13  1  0
 12 14  2  0
 14 15  1  0
 15  1  1  0
  1  2  2  0
  2  3  1  0
  3  4  2  0
  4  5  1  0
  5  6  2  0
  6  7  1  0
  7 20  1  0
 20 22  1  0
 22 23  1  0
 23 24  1  0
 24 25  1  0
  7  8  2  0
  8  9  1  0
 15 16  2  0
 16 10  1  0
  9  1  1  0
  9  4  1  0
 25 23  1  0
 20 21  1  0
M  END
> <minimizedAffinity>
-8.25271

> <CNNscore>
0.6170335412

> <CNNaffinity>
7.2962279320

> <CNN_VS>
4.5020174980

> <CNNaffinity_variance>
0.1792797595

$$$$
