


 42 46  0  0  0  0  0  0  0  0999 V2000
    6.3126   30.5891   56.9203 N   0  0  0  0  0  0  0  0  0  0  0  0
    6.1740   29.2167   57.0130 C   0  0  0  0  0  0  0  0  0  0  0  0
    6.6331   28.5462   57.9270 O   0  0  0  0  0  0  0  0  0  0  0  0
    5.9318   31.0113   56.1166 H   0  0  0  0  0  0  0  0  0  0  0  0
    8.0958   33.3539   59.5924 C   0  0  0  0  0  0  0  0  0  0  0  0
    8.3089   31.9820   59.7795 C   0  0  0  0  0  0  0  0  0  0  0  0
    7.7370   31.0410   58.9085 C   0  0  0  0  0  0  0  0  0  0  0  0
    6.9377   31.4571   57.8453 C   0  0  0  0  0  0  0  0  0  0  0  0
    6.7264   32.8314   57.6732 C   0  0  0  0  0  0  0  0  0  0  0  0
    5.9503   33.2560   56.6603 F   0  0  0  0  0  0  0  0  0  0  0  0
    7.3072   33.7787   58.5146 C   0  0  0  0  0  0  0  0  0  0  0  0
    8.5003   34.5688   61.8097 C   0  0  0  0  0  0  0  0  0  0  0  0
    9.3443   35.4891   62.2539 N   0  0  0  0  0  0  0  0  0  0  0  0
   10.0395   35.8971   61.1638 C   0  0  0  0  0  0  0  0  0  0  0  0
   10.9988   36.8278   61.1913 F   0  0  0  0  0  0  0  0  0  0  0  0
    9.6446   35.2375   60.0345 C   0  0  0  0  0  0  0  0  0  0  0  0
    8.6971   34.3217   60.4485 N   0  0  0  0  0  0  0  0  0  0  0  0
    7.4007   33.9954   62.6643 C   0  0  0  0  0  0  0  0  0  0  0  0
    6.6384   36.2381   63.1039 C   0  0  0  0  0  0  0  0  0  0  0  0
    6.2155   34.8739   62.7697 N   0  0  0  0  0  0  0  0  0  0  0  0
    5.4596   34.8884   61.5098 C   0  0  0  0  0  0  0  0  0  0  0  0
    5.4595   28.6177   55.9028 C   0  0  0  0  0  0  0  0  0  0  0  0
    4.0946   28.4297   55.7568 C   0  0  0  0  0  0  0  0  0  0  0  0
    3.8850   28.0318   54.4170 C   0  0  0  0  0  0  0  0  0  0  0  0
    5.0536   27.9534   53.7671 N   0  0  0  0  0  0  0  0  0  0  0  0
    6.0199   28.1986   54.6974 N   0  0  0  0  0  0  0  0  0  0  0  0
    7.3822   27.9446   54.3362 C   0  0  0  0  0  0  0  0  0  0  0  0
    8.1617   27.1166   55.1729 C   0  0  0  0  0  0  0  0  0  0  0  0
    9.4968   26.8079   54.8732 C   0  0  0  0  0  0  0  0  0  0  0  0
   10.0124   27.3768   53.7139 C   0  0  0  0  0  0  0  0  0  0  0  0
   11.2680   27.2021   53.2232 O   0  0  0  0  0  0  0  0  0  0  0  0
   11.4125   27.9319   52.0556 N   0  0  0  0  0  0  0  0  0  0  0  0
   10.2425   28.5447   51.8625 C   0  0  0  0  0  0  0  0  0  0  0  0
    9.9770   29.3585   50.8252 N   0  0  0  0  0  0  0  0  0  0  0  0
    9.3063   28.2217   52.8793 C   0  0  0  0  0  0  0  0  0  0  0  0
    7.9657   28.5330   53.1967 C   0  0  0  0  0  0  0  0  0  0  0  0
   10.6723   29.5419   50.1528 H   0  0  0  0  0  0  0  0  0  0  0  0
    9.0872   29.7709   50.7383 H   0  0  0  0  0  0  0  0  0  0  0  0
    2.5584   27.7676   53.7499 C   0  0  0  0  0  0  0  0  0  0  0  0
    2.0524   28.8687   53.1342 F   0  0  0  0  0  0  0  0  0  0  0  0
    1.6188   27.3252   54.6253 F   0  0  0  0  0  0  0  0  0  0  0  0
    2.6705   26.8075   52.7893 F   0  0  0  0  0  0  0  0  0  0  0  0
 19 20  1  0
 20 21  1  0
 20 18  1  0
 18 12  1  0
 12 13  2  0
 13 14  1  0
 14 15  1  0
 14 16  2  0
 16 17  1  0
 17  5  1  0
  5  6  2  0
  6  7  1  0
  7  8  2  0
  8  1  1  0
  1  2  1  0
  2  3  2  0
  2 22  1  0
 22 23  2  0
 23 24  1  0
 24 39  1  0
 39 40  1  0
 39 41  1  0
 39 42  1  0
 24 25  2  0
 25 26  1  0
 26 27  1  0
 27 28  2  0
 28 29  1  0
 29 30  2  0
 30 31  1  0
 31 32  1  0
 32 33  2  0
 33 34  1  0
 33 35  1  0
 35 36  2  0
  8  9  1  0
  9 10  1  0
  9 11  2  0
 17 12  1  0
 11  5  1  0
 26 22  1  0
 36 27  1  0
 35 30  1  0
  1  4  1  0
 34 37  1  0
 34 38  1  0
M  END
> <minimizedAffinity>
-11.52591

> <CNNscore>
0.9857903719

> <CNNaffinity>
8.7917585373

> <CNN_VS>
8.6668310165

> <CNNaffinity_variance>
0.0120422216

$$$$



 42 46  0  0  0  0  0  0  0  0999 V2000
    5.4057   29.9122   56.9993 N   0  0  0  0  0  0  0  0  0  0  0  0
    6.3614   29.1211   56.3894 C   0  0  0  0  0  0  0  0  0  0  0  0
    7.5565   29.1800   56.6423 O   0  0  0  0  0  0  0  0  0  0  0  0
    4.4806   29.7988   56.6823 H   0  0  0  0  0  0  0  0  0  0  0  0
    5.9265   32.9182   59.9416 C   0  0  0  0  0  0  0  0  0  0  0  0
    6.1999   31.5833   60.2669 C   0  0  0  0  0  0  0  0  0  0  0  0
    6.0428   30.5650   59.3131 C   0  0  0  0  0  0  0  0  0  0  0  0
    5.6020   30.8652   58.0255 C   0  0  0  0  0  0  0  0  0  0  0  0
    5.3252   32.2030   57.7148 C   0  0  0  0  0  0  0  0  0  0  0  0
    4.8888   32.5153   56.4817 F   0  0  0  0  0  0  0  0  0  0  0  0
    5.4997   33.2278   58.6431 C   0  0  0  0  0  0  0  0  0  0  0  0
    7.2790   34.6272   61.2854 C   0  0  0  0  0  0  0  0  0  0  0  0
    7.0033   35.6239   62.1143 N   0  0  0  0  0  0  0  0  0  0  0  0
    5.6644   35.5633   62.3185 C   0  0  0  0  0  0  0  0  0  0  0  0
    4.9865   36.4071   63.1031 F   0  0  0  0  0  0  0  0  0  0  0  0
    5.0909   34.5385   61.6205 C   0  0  0  0  0  0  0  0  0  0  0  0
    6.1134   33.9661   60.8893 N   0  0  0  0  0  0  0  0  0  0  0  0
    8.6887   34.2133   60.9537 C   0  0  0  0  0  0  0  0  0  0  0  0
   10.7340   35.4320   60.5863 C   0  0  0  0  0  0  0  0  0  0  0  0
    9.7187   35.0694   61.5809 N   0  0  0  0  0  0  0  0  0  0  0  0
    9.1188   36.2895   62.1380 C   0  0  0  0  0  0  0  0  0  0  0  0
    5.8315   28.2242   55.3811 C   0  0  0  0  0  0  0  0  0  0  0  0
    4.5341   27.7601   55.2360 C   0  0  0  0  0  0  0  0  0  0  0  0
    4.4762   27.1157   53.9795 C   0  0  0  0  0  0  0  0  0  0  0  0
    5.6741   27.1542   53.3817 N   0  0  0  0  0  0  0  0  0  0  0  0
    6.5257   27.7269   54.2796 N   0  0  0  0  0  0  0  0  0  0  0  0
    7.9296   27.6793   54.0008 C   0  0  0  0  0  0  0  0  0  0  0  0
    8.7679   26.9452   54.8679 C   0  0  0  0  0  0  0  0  0  0  0  0
   10.1490   26.8378   54.6476 C   0  0  0  0  0  0  0  0  0  0  0  0
   10.6467   27.5087   53.5360 C   0  0  0  0  0  0  0  0  0  0  0  0
   11.9416   27.5284   53.1229 O   0  0  0  0  0  0  0  0  0  0  0  0
   12.0502   28.3061   51.9827 N   0  0  0  0  0  0  0  0  0  0  0  0
   10.8182   28.7525   51.7283 C   0  0  0  0  0  0  0  0  0  0  0  0
   10.5019   29.5514   50.6936 N   0  0  0  0  0  0  0  0  0  0  0  0
    9.8785   28.2698   52.6761 C   0  0  0  0  0  0  0  0  0  0  0  0
    8.4904   28.3784   52.9136 C   0  0  0  0  0  0  0  0  0  0  0  0
   11.2030   29.8515   50.0711 H   0  0  0  0  0  0  0  0  0  0  0  0
    9.5691   29.8361   50.5587 H   0  0  0  0  0  0  0  0  0  0  0  0
    3.2595   26.4997   53.3353 C   0  0  0  0  0  0  0  0  0  0  0  0
    2.7056   25.5169   54.0934 F   0  0  0  0  0  0  0  0  0  0  0  0
    3.5343   25.9656   52.1172 F   0  0  0  0  0  0  0  0  0  0  0  0
    2.2822   27.4282   53.1358 F   0  0  0  0  0  0  0  0  0  0  0  0
 19 20  1  0
 20 21  1  0
 20 18  1  0
 18 12  1  0
 12 13  2  0
 13 14  1  0
 14 15  1  0
 14 16  2  0
 16 17  1  0
 17  5  1  0
  5  6  2  0
  6  7  1  0
  7  8  2  0
  8  1  1  0
  1  2  1  0
  2  3  2  0
  2 22  1  0
 22 23  2  0
 23 24  1  0
 24 39  1  0
 39 40  1  0
 39 41  1  0
 39 42  1  0
 24 25  2  0
 25 26  1  0
 26 27  1  0
 27 28  2  0
 28 29  1  0
 29 30  2  0
 30 31  1  0
 31 32  1  0
 32 33  2  0
 33 34  1  0
 33 35  1  0
 35 36  2  0
  8  9  1  0
  9 10  1  0
  9 11  2  0
 17 12  1  0
 11  5  1  0
 26 22  1  0
 36 27  1  0
 35 30  1  0
  1  4  1  0
 34 37  1  0
 34 38  1  0
M  END
> <minimizedAffinity>
-9.93504

> <CNNscore>
0.9791861773

> <CNNaffinity>
8.5213365555

> <CNN_VS>
8.3439750671

> <CNNaffinity_variance>
0.0144990953

$$$$



 42 46  0  0  0  0  0  0  0  0999 V2000
    5.5710   29.8903   56.7610 N   0  0  0  0  0  0  0  0  0  0  0  0
    6.4449   28.9500   56.2480 C   0  0  0  0  0  0  0  0  0  0  0  0
    7.6051   28.8270   56.6150 O   0  0  0  0  0  0  0  0  0  0  0  0
    4.6738   29.9165   56.3564 H   0  0  0  0  0  0  0  0  0  0  0  0
    6.2927   32.5141   60.0105 C   0  0  0  0  0  0  0  0  0  0  0  0
    6.2814   33.0232   58.7055 C   0  0  0  0  0  0  0  0  0  0  0  0
    6.0396   32.1813   57.6082 C   0  0  0  0  0  0  0  0  0  0  0  0
    5.8154   30.8190   57.7990 C   0  0  0  0  0  0  0  0  0  0  0  0
    5.8364   30.3210   59.1083 C   0  0  0  0  0  0  0  0  0  0  0  0
    5.6329   29.0080   59.3161 F   0  0  0  0  0  0  0  0  0  0  0  0
    6.0506   31.1481   60.2095 C   0  0  0  0  0  0  0  0  0  0  0  0
    7.1945   34.5728   61.2371 C   0  0  0  0  0  0  0  0  0  0  0  0
    7.0567   35.1009   62.4448 N   0  0  0  0  0  0  0  0  0  0  0  0
    6.3388   34.1958   63.1545 C   0  0  0  0  0  0  0  0  0  0  0  0
    5.9837   34.3567   64.4332 F   0  0  0  0  0  0  0  0  0  0  0  0
    6.0175   33.1015   62.4025 C   0  0  0  0  0  0  0  0  0  0  0  0
    6.5034   33.3624   61.1361 N   0  0  0  0  0  0  0  0  0  0  0  0
    8.1001   35.1660   60.1901 C   0  0  0  0  0  0  0  0  0  0  0  0
    9.1871   36.1038   62.1246 C   0  0  0  0  0  0  0  0  0  0  0  0
    9.3769   35.6770   60.7342 N   0  0  0  0  0  0  0  0  0  0  0  0
   10.4225   34.6464   60.6748 C   0  0  0  0  0  0  0  0  0  0  0  0
    5.8796   28.1288   55.1954 C   0  0  0  0  0  0  0  0  0  0  0  0
    4.6198   27.5555   55.1316 C   0  0  0  0  0  0  0  0  0  0  0  0
    4.4697   27.0611   53.8163 C   0  0  0  0  0  0  0  0  0  0  0  0
    5.5801   27.2912   53.1035 N   0  0  0  0  0  0  0  0  0  0  0  0
    6.4789   27.8377   53.9712 N   0  0  0  0  0  0  0  0  0  0  0  0
    7.8385   27.9662   53.5399 C   0  0  0  0  0  0  0  0  0  0  0  0
    8.1102   28.7036   52.3670 C   0  0  0  0  0  0  0  0  0  0  0  0
    9.4180   28.8882   51.8946 C   0  0  0  0  0  0  0  0  0  0  0  0
   10.4290   28.2901   52.6387 C   0  0  0  0  0  0  0  0  0  0  0  0
   11.7618   28.3517   52.3785 O   0  0  0  0  0  0  0  0  0  0  0  0
   12.4525   27.6290   53.3363 N   0  0  0  0  0  0  0  0  0  0  0  0
   11.5243   27.1334   54.1576 C   0  0  0  0  0  0  0  0  0  0  0  0
   11.7938   26.3641   55.2274 N   0  0  0  0  0  0  0  0  0  0  0  0
   10.2168   27.5289   53.7721 C   0  0  0  0  0  0  0  0  0  0  0  0
    8.8947   27.3420   54.2327 C   0  0  0  0  0  0  0  0  0  0  0  0
   12.7250   26.1255   55.4400 H   0  0  0  0  0  0  0  0  0  0  0  0
   11.0600   26.0397   55.7979 H   0  0  0  0  0  0  0  0  0  0  0  0
    3.2437   26.4047   53.2322 C   0  0  0  0  0  0  0  0  0  0  0  0
    3.4669   25.8814   51.9977 F   0  0  0  0  0  0  0  0  0  0  0  0
    2.1985   27.2653   53.1245 F   0  0  0  0  0  0  0  0  0  0  0  0
    2.8142   25.3748   54.0144 F   0  0  0  0  0  0  0  0  0  0  0  0
 19 20  1  0
 20 21  1  0
 20 18  1  0
 18 12  1  0
 12 13  2  0
 13 14  1  0
 14 15  1  0
 14 16  2  0
 16 17  1  0
 17  5  1  0
  5  6  2  0
  6  7  1  0
  7  8  2  0
  8  1  1  0
  1  2  1  0
  2  3  2  0
  2 22  1  0
 22 23  2  0
 23 24  1  0
 24 39  1  0
 39 40  1  0
 39 41  1  0
 39 42  1  0
 24 25  2  0
 25 26  1  0
 26 27  1  0
 27 28  2  0
 28 29  1  0
 29 30  2  0
 30 31  1  0
 31 32  1  0
 32 33  2  0
 33 34  1  0
 33 35  1  0
 35 36  2  0
  8  9  1  0
  9 10  1  0
  9 11  2  0
 17 12  1  0
 11  5  1  0
 26 22  1  0
 36 27  1  0
 35 30  1  0
  1  4  1  0
 34 37  1  0
 34 38  1  0
M  END
> <minimizedAffinity>
-7.20873

> <CNNscore>
0.5642957687

> <CNNaffinity>
8.1380252838

> <CNN_VS>
4.5922532082

> <CNNaffinity_variance>
0.1769549847

$$$$



 42 46  0  0  0  0  0  0  0  0999 V2000
    7.4014   30.5514   57.5495 N   0  0  0  0  0  0  0  0  0  0  0  0
    6.7937   29.3515   57.2303 C   0  0  0  0  0  0  0  0  0  0  0  0
    5.8371   28.8901   57.8367 O   0  0  0  0  0  0  0  0  0  0  0  0
    8.1881   30.7972   57.0111 H   0  0  0  0  0  0  0  0  0  0  0  0
    6.2901   33.4515   60.4337 C   0  0  0  0  0  0  0  0  0  0  0  0
    6.3227   32.0988   60.7964 C   0  0  0  0  0  0  0  0  0  0  0  0
    6.6922   31.1145   59.8659 C   0  0  0  0  0  0  0  0  0  0  0  0
    7.0247   31.4671   58.5592 C   0  0  0  0  0  0  0  0  0  0  0  0
    6.9813   32.8224   58.2070 C   0  0  0  0  0  0  0  0  0  0  0  0
    7.2881   33.1854   56.9490 F   0  0  0  0  0  0  0  0  0  0  0  0
    6.6404   33.8134   59.1259 C   0  0  0  0  0  0  0  0  0  0  0  0
    6.7695   35.2721   62.1692 C   0  0  0  0  0  0  0  0  0  0  0  0
    6.0558   36.1710   62.8318 N   0  0  0  0  0  0  0  0  0  0  0  0
    4.7625   35.8987   62.5296 C   0  0  0  0  0  0  0  0  0  0  0  0
    3.7203   36.5884   63.0042 F   0  0  0  0  0  0  0  0  0  0  0  0
    4.6538   34.8371   61.6766 C   0  0  0  0  0  0  0  0  0  0  0  0
    5.9495   34.4645   61.3766 N   0  0  0  0  0  0  0  0  0  0  0  0
    8.2497   35.0933   62.3820 C   0  0  0  0  0  0  0  0  0  0  0  0
    9.8751   36.8473   62.0893 C   0  0  0  0  0  0  0  0  0  0  0  0
    9.0801   35.8247   61.4008 N   0  0  0  0  0  0  0  0  0  0  0  0
    9.9755   34.9068   60.6835 C   0  0  0  0  0  0  0  0  0  0  0  0
    7.4128   28.6510   56.1221 C   0  0  0  0  0  0  0  0  0  0  0  0
    8.7458   28.3133   55.9522 C   0  0  0  0  0  0  0  0  0  0  0  0
    8.8007   27.4402   54.8423 C   0  0  0  0  0  0  0  0  0  0  0  0
    7.5756   27.2591   54.3323 N   0  0  0  0  0  0  0  0  0  0  0  0
    6.7478   28.0820   55.0374 N   0  0  0  0  0  0  0  0  0  0  0  0
    5.4150   28.2744   54.5502 C   0  0  0  0  0  0  0  0  0  0  0  0
    4.7796   27.2088   53.8764 C   0  0  0  0  0  0  0  0  0  0  0  0
    3.4689   27.3174   53.3888 C   0  0  0  0  0  0  0  0  0  0  0  0
    2.8378   28.5394   53.5933 C   0  0  0  0  0  0  0  0  0  0  0  0
    1.5699   28.8606   53.2229 O   0  0  0  0  0  0  0  0  0  0  0  0
    1.2990   30.1674   53.5910 N   0  0  0  0  0  0  0  0  0  0  0  0
    2.4124   30.6200   54.1718 C   0  0  0  0  0  0  0  0  0  0  0  0
    2.5552   31.8614   54.6691 N   0  0  0  0  0  0  0  0  0  0  0  0
    3.4245   29.6258   54.2134 C   0  0  0  0  0  0  0  0  0  0  0  0
    4.7483   29.5076   54.6916 C   0  0  0  0  0  0  0  0  0  0  0  0
    1.8124   32.5047   54.6079 H   0  0  0  0  0  0  0  0  0  0  0  0
    3.4025   32.1269   55.0943 H   0  0  0  0  0  0  0  0  0  0  0  0
   10.0245   26.7471   54.2976 C   0  0  0  0  0  0  0  0  0  0  0  0
   10.1908   26.9480   52.9636 F   0  0  0  0  0  0  0  0  0  0  0  0
    9.9935   25.4051   54.5045 F   0  0  0  0  0  0  0  0  0  0  0  0
   11.1594   27.2023   54.8992 F   0  0  0  0  0  0  0  0  0  0  0  0
 19 20  1  0
 20 21  1  0
 20 18  1  0
 18 12  1  0
 12 13  2  0
 13 14  1  0
 14 15  1  0
 14 16  2  0
 16 17  1  0
 17  5  1  0
  5  6  2  0
  6  7  1  0
  7  8  2  0
  8  1  1  0
  1  2  1  0
  2  3  2  0
  2 22  1  0
 22 23  2  0
 23 24  1  0
 24 39  1  0
 39 40  1  0
 39 41  1  0
 39 42  1  0
 24 25  2  0
 25 26  1  0
 26 27  1  0
 27 28  2  0
 28 29  1  0
 29 30  2  0
 30 31  1  0
 31 32  1  0
 32 33  2  0
 33 34  1  0
 33 35  1  0
 35 36  2  0
  8  9  1  0
  9 10  1  0
  9 11  2  0
 17 12  1  0
 11  5  1  0
 26 22  1  0
 36 27  1  0
 35 30  1  0
  1  4  1  0
 34 37  1  0
 34 38  1  0
M  END
> <minimizedAffinity>
-9.18203

> <CNNscore>
0.4789719284

> <CNNaffinity>
7.7117137909

> <CNN_VS>
3.6936943531

> <CNNaffinity_variance>
0.1899408549

$$$$



 42 46  0  0  0  0  0  0  0  0999 V2000
    6.2963   30.4995   57.0567 N   0  0  0  0  0  0  0  0  0  0  0  0
    6.9499   29.3589   56.6291 C   0  0  0  0  0  0  0  0  0  0  0  0
    8.0967   29.0728   56.9437 O   0  0  0  0  0  0  0  0  0  0  0  0
    5.3879   30.6384   56.7034 H   0  0  0  0  0  0  0  0  0  0  0  0
    7.7542   33.3213   59.8631 C   0  0  0  0  0  0  0  0  0  0  0  0
    7.5220   33.7234   58.5415 C   0  0  0  0  0  0  0  0  0  0  0  0
    7.0339   32.8142   57.5894 C   0  0  0  0  0  0  0  0  0  0  0  0
    6.7803   31.4900   57.9423 C   0  0  0  0  0  0  0  0  0  0  0  0
    7.0233   31.0986   59.2654 C   0  0  0  0  0  0  0  0  0  0  0  0
    6.7957   29.8234   59.6266 F   0  0  0  0  0  0  0  0  0  0  0  0
    7.4844   31.9953   60.2277 C   0  0  0  0  0  0  0  0  0  0  0  0
    7.9312   34.3218   62.2134 C   0  0  0  0  0  0  0  0  0  0  0  0
    8.6607   35.2608   62.7988 N   0  0  0  0  0  0  0  0  0  0  0  0
    9.3668   35.8444   61.7993 C   0  0  0  0  0  0  0  0  0  0  0  0
   10.2305   36.8489   61.9787 F   0  0  0  0  0  0  0  0  0  0  0  0
    9.0927   35.2775   60.5869 C   0  0  0  0  0  0  0  0  0  0  0  0
    8.2176   34.2412   60.8480 N   0  0  0  0  0  0  0  0  0  0  0  0
    6.8503   33.5637   62.9381 C   0  0  0  0  0  0  0  0  0  0  0  0
    5.5740   34.9932   64.3979 C   0  0  0  0  0  0  0  0  0  0  0  0
    5.5934   34.3280   63.0907 N   0  0  0  0  0  0  0  0  0  0  0  0
    5.4573   35.3318   62.0264 C   0  0  0  0  0  0  0  0  0  0  0  0
    6.1685   28.5300   55.7324 C   0  0  0  0  0  0  0  0  0  0  0  0
    4.8738   28.0645   55.8968 C   0  0  0  0  0  0  0  0  0  0  0  0
    4.4859   27.5097   54.6563 C   0  0  0  0  0  0  0  0  0  0  0  0
    5.4877   27.6019   53.7721 N   0  0  0  0  0  0  0  0  0  0  0  0
    6.5483   28.1183   54.4561 N   0  0  0  0  0  0  0  0  0  0  0  0
    7.8312   28.1042   53.8197 C   0  0  0  0  0  0  0  0  0  0  0  0
    7.9521   28.6587   52.5269 C   0  0  0  0  0  0  0  0  0  0  0  0
    9.1799   28.6978   51.8497 C   0  0  0  0  0  0  0  0  0  0  0  0
   10.2667   28.1449   52.5180 C   0  0  0  0  0  0  0  0  0  0  0  0
   11.5462   28.0894   52.0624 O   0  0  0  0  0  0  0  0  0  0  0  0
   12.3441   27.4616   53.0037 N   0  0  0  0  0  0  0  0  0  0  0  0
   11.5314   27.1388   54.0123 C   0  0  0  0  0  0  0  0  0  0  0  0
   11.9282   26.5058   55.1306 N   0  0  0  0  0  0  0  0  0  0  0  0
   10.1977   27.5578   53.7667 C   0  0  0  0  0  0  0  0  0  0  0  0
    8.9539   27.5158   54.4348 C   0  0  0  0  0  0  0  0  0  0  0  0
   12.8704   26.2416   55.2386 H   0  0  0  0  0  0  0  0  0  0  0  0
   11.2765   26.3066   55.8411 H   0  0  0  0  0  0  0  0  0  0  0  0
    3.1382   26.9286   54.3083 C   0  0  0  0  0  0  0  0  0  0  0  0
    2.9856   26.7206   52.9738 F   0  0  0  0  0  0  0  0  0  0  0  0
    2.1131   27.7214   54.7147 F   0  0  0  0  0  0  0  0  0  0  0  0
    2.9507   25.7201   54.9095 F   0  0  0  0  0  0  0  0  0  0  0  0
 19 20  1  0
 20 21  1  0
 20 18  1  0
 18 12  1  0
 12 13  2  0
 13 14  1  0
 14 15  1  0
 14 16  2  0
 16 17  1  0
 17  5  1  0
  5  6  2  0
  6  7  1  0
  7  8  2  0
  8  1  1  0
  1  2  1  0
  2  3  2  0
  2 22  1  0
 22 23  2  0
 23 24  1  0
 24 39  1  0
 39 40  1  0
 39 41  1  0
 39 42  1  0
 24 25  2  0
 25 26  1  0
 26 27  1  0
 27 28  2  0
 28 29  1  0
 29 30  2  0
 30 31  1  0
 31 32  1  0
 32 33  2  0
 33 34  1  0
 33 35  1  0
 35 36  2  0
  8  9  1  0
  9 10  1  0
  9 11  2  0
 17 12  1  0
 11  5  1  0
 26 22  1  0
 36 27  1  0
 35 30  1  0
  1  4  1  0
 34 37  1  0
 34 38  1  0
M  END
> <minimizedAffinity>
-8.35636

> <CNNscore>
0.4720955789

> <CNNaffinity>
7.8661365509

> <CNN_VS>
3.7135682106

> <CNNaffinity_variance>
0.0214083884

$$$$



 42 46  0  0  0  0  0  0  0  0999 V2000
    5.6697   30.8644   57.0449 N   0  0  0  0  0  0  0  0  0  0  0  0
    4.8867   29.7728   57.3709 C   0  0  0  0  0  0  0  0  0  0  0  0
    4.7919   29.3161   58.5015 O   0  0  0  0  0  0  0  0  0  0  0  0
    5.6939   31.1134   56.0927 H   0  0  0  0  0  0  0  0  0  0  0  0
    7.8670   33.4326   59.6024 C   0  0  0  0  0  0  0  0  0  0  0  0
    8.1431   32.0592   59.6053 C   0  0  0  0  0  0  0  0  0  0  0  0
    7.4368   31.1829   58.7658 C   0  0  0  0  0  0  0  0  0  0  0  0
    6.4400   31.6652   57.9197 C   0  0  0  0  0  0  0  0  0  0  0  0
    6.1686   33.0396   57.9313 C   0  0  0  0  0  0  0  0  0  0  0  0
    5.2039   33.5265   57.1308 F   0  0  0  0  0  0  0  0  0  0  0  0
    6.8776   33.9254   58.7409 C   0  0  0  0  0  0  0  0  0  0  0  0
    8.5279   34.5655   61.8015 C   0  0  0  0  0  0  0  0  0  0  0  0
    9.4647   35.4174   62.1926 N   0  0  0  0  0  0  0  0  0  0  0  0
   10.0970   35.8044   61.0574 C   0  0  0  0  0  0  0  0  0  0  0  0
   11.1161   36.6689   61.0240 F   0  0  0  0  0  0  0  0  0  0  0  0
    9.5698   35.1991   59.9519 C   0  0  0  0  0  0  0  0  0  0  0  0
    8.5986   34.3381   60.4245 N   0  0  0  0  0  0  0  0  0  0  0  0
    7.4635   34.0458   62.7317 C   0  0  0  0  0  0  0  0  0  0  0  0
    6.8599   36.3438   63.1300 C   0  0  0  0  0  0  0  0  0  0  0  0
    6.3399   34.9872   62.9283 N   0  0  0  0  0  0  0  0  0  0  0  0
    5.4361   34.9746   61.7699 C   0  0  0  0  0  0  0  0  0  0  0  0
    4.2014   29.1773   56.2406 C   0  0  0  0  0  0  0  0  0  0  0  0
    2.8384   29.0861   56.0091 C   0  0  0  0  0  0  0  0  0  0  0  0
    2.6862   28.6420   54.6761 C   0  0  0  0  0  0  0  0  0  0  0  0
    3.8849   28.4448   54.1121 N   0  0  0  0  0  0  0  0  0  0  0  0
    4.8047   28.6603   55.0954 N   0  0  0  0  0  0  0  0  0  0  0  0
    6.1635   28.2874   54.8398 C   0  0  0  0  0  0  0  0  0  0  0  0
    6.6428   28.3422   53.5129 C   0  0  0  0  0  0  0  0  0  0  0  0
    7.9668   28.0105   53.1895 C   0  0  0  0  0  0  0  0  0  0  0  0
    8.7746   27.6095   54.2478 C   0  0  0  0  0  0  0  0  0  0  0  0
   10.0862   27.2610   54.1700 O   0  0  0  0  0  0  0  0  0  0  0  0
   10.5473   26.9163   55.4291 N   0  0  0  0  0  0  0  0  0  0  0  0
    9.5030   27.0538   56.2491 C   0  0  0  0  0  0  0  0  0  0  0  0
    9.5420   26.8092   57.5710 N   0  0  0  0  0  0  0  0  0  0  0  0
    8.3479   27.5035   55.5576 C   0  0  0  0  0  0  0  0  0  0  0  0
    7.0099   27.8310   55.8696 C   0  0  0  0  0  0  0  0  0  0  0  0
   10.3771   26.4984   57.9897 H   0  0  0  0  0  0  0  0  0  0  0  0
    8.7355   26.9408   58.1199 H   0  0  0  0  0  0  0  0  0  0  0  0
    1.3893   28.4471   53.9312 C   0  0  0  0  0  0  0  0  0  0  0  0
    0.8993   29.6070   53.4191 F   0  0  0  0  0  0  0  0  0  0  0  0
    0.4193   27.9084   54.7144 F   0  0  0  0  0  0  0  0  0  0  0  0
    1.5473   27.5981   52.8771 F   0  0  0  0  0  0  0  0  0  0  0  0
 19 20  1  0
 20 21  1  0
 20 18  1  0
 18 12  1  0
 12 13  2  0
 13 14  1  0
 14 15  1  0
 14 16  2  0
 16 17  1  0
 17  5  1  0
  5  6  2  0
  6  7  1  0
  7  8  2  0
  8  1  1  0
  1  2  1  0
  2  3  2  0
  2 22  1  0
 22 23  2  0
 23 24  1  0
 24 39  1  0
 39 40  1  0
 39 41  1  0
 39 42  1  0
 24 25  2  0
 25 26  1  0
 26 27  1  0
 27 28  2  0
 28 29  1  0
 29 30  2  0
 30 31  1  0
 31 32  1  0
 32 33  2  0
 33 34  1  0
 33 35  1  0
 35 36  2  0
  8  9  1  0
  9 10  1  0
  9 11  2  0
 17 12  1  0
 11  5  1  0
 26 22  1  0
 36 27  1  0
 35 30  1  0
  1  4  1  0
 34 37  1  0
 34 38  1  0
M  END
> <minimizedAffinity>
-9.39092

> <CNNscore>
0.4002975821

> <CNNaffinity>
7.6566491127

> <CNN_VS>
3.0649380684

> <CNNaffinity_variance>
0.1832719594

$$$$



 42 46  0  0  0  0  0  0  0  0999 V2000
    4.6533   33.3947   57.3926 N   0  0  0  0  0  0  0  0  0  0  0  0
    6.0302   33.3222   57.2927 C   0  0  0  0  0  0  0  0  0  0  0  0
    6.7112   34.1273   56.6731 O   0  0  0  0  0  0  0  0  0  0  0  0
    4.2142   32.6651   57.8868 H   0  0  0  0  0  0  0  0  0  0  0  0
    2.0763   36.4655   56.0165 C   0  0  0  0  0  0  0  0  0  0  0  0
    2.6527   35.5858   55.0911 C   0  0  0  0  0  0  0  0  0  0  0  0
    3.5060   34.5547   55.5155 C   0  0  0  0  0  0  0  0  0  0  0  0
    3.8020   34.3945   56.8679 C   0  0  0  0  0  0  0  0  0  0  0  0
    3.2249   35.2851   57.7827 C   0  0  0  0  0  0  0  0  0  0  0  0
    3.5042   35.1564   59.0918 F   0  0  0  0  0  0  0  0  0  0  0  0
    2.3567   36.2981   57.3794 C   0  0  0  0  0  0  0  0  0  0  0  0
    1.3774   38.8760   55.5097 C   0  0  0  0  0  0  0  0  0  0  0  0
    0.3225   39.4710   54.9715 N   0  0  0  0  0  0  0  0  0  0  0  0
   -0.5911   38.4866   54.7856 C   0  0  0  0  0  0  0  0  0  0  0  0
   -1.8041   38.6793   54.2580 F   0  0  0  0  0  0  0  0  0  0  0  0
   -0.1192   37.2726   55.1978 C   0  0  0  0  0  0  0  0  0  0  0  0
    1.1821   37.4955   55.6036 N   0  0  0  0  0  0  0  0  0  0  0  0
    2.5504   39.6443   56.0594 C   0  0  0  0  0  0  0  0  0  0  0  0
    2.5936   40.0334   58.4365 C   0  0  0  0  0  0  0  0  0  0  0  0
    2.1858   40.5857   57.1402 N   0  0  0  0  0  0  0  0  0  0  0  0
    2.8288   41.8912   56.9380 C   0  0  0  0  0  0  0  0  0  0  0  0
    6.6126   32.1755   57.9618 C   0  0  0  0  0  0  0  0  0  0  0  0
    6.4743   30.8328   57.6493 C   0  0  0  0  0  0  0  0  0  0  0  0
    7.4172   30.1373   58.4396 C   0  0  0  0  0  0  0  0  0  0  0  0
    8.0918   30.9926   59.2188 N   0  0  0  0  0  0  0  0  0  0  0  0
    7.5269   32.2166   59.0130 N   0  0  0  0  0  0  0  0  0  0  0  0
    7.8914   33.2834   59.8960 C   0  0  0  0  0  0  0  0  0  0  0  0
    9.2475   33.6696   59.9683 C   0  0  0  0  0  0  0  0  0  0  0  0
    9.6759   34.7181   60.7957 C   0  0  0  0  0  0  0  0  0  0  0  0
    8.6912   35.3441   61.5519 C   0  0  0  0  0  0  0  0  0  0  0  0
    8.8743   36.3878   62.4033 O   0  0  0  0  0  0  0  0  0  0  0  0
    7.6626   36.7328   62.9773 N   0  0  0  0  0  0  0  0  0  0  0  0
    6.7651   35.8851   62.4695 C   0  0  0  0  0  0  0  0  0  0  0  0
    5.4572   35.8913   62.7826 N   0  0  0  0  0  0  0  0  0  0  0  0
    7.3574   34.9837   61.5470 C   0  0  0  0  0  0  0  0  0  0  0  0
    6.9395   33.9199   60.7170 C   0  0  0  0  0  0  0  0  0  0  0  0
    5.1095   36.5446   63.4319 H   0  0  0  0  0  0  0  0  0  0  0  0
    4.8474   35.2426   62.3624 H   0  0  0  0  0  0  0  0  0  0  0  0
    7.6987   28.6557   58.4155 C   0  0  0  0  0  0  0  0  0  0  0  0
    7.3759   28.0798   57.2274 F   0  0  0  0  0  0  0  0  0  0  0  0
    7.0256   27.9859   59.3866 F   0  0  0  0  0  0  0  0  0  0  0  0
    9.0217   28.4005   58.6195 F   0  0  0  0  0  0  0  0  0  0  0  0
 19 20  1  0
 20 21  1  0
 20 18  1  0
 18 12  1  0
 12 13  2  0
 13 14  1  0
 14 15  1  0
 14 16  2  0
 16 17  1  0
 17  5  1  0
  5  6  2  0
  6  7  1  0
  7  8  2  0
  8  1  1  0
  1  2  1  0
  2  3  2  0
  2 22  1  0
 22 23  2  0
 23 24  1  0
 24 39  1  0
 39 40  1  0
 39 41  1  0
 39 42  1  0
 24 25  2  0
 25 26  1  0
 26 27  1  0
 27 28  2  0
 28 29  1  0
 29 30  2  0
 30 31  1  0
 31 32  1  0
 32 33  2  0
 33 34  1  0
 33 35  1  0
 35 36  2  0
  8  9  1  0
  9 10  1  0
  9 11  2  0
 17 12  1  0
 11  5  1  0
 26 22  1  0
 36 27  1  0
 35 30  1  0
  1  4  1  0
 34 37  1  0
 34 38  1  0
M  END
> <minimizedAffinity>
-7.40189

> <CNNscore>
0.2591127157

> <CNNaffinity>
6.4404768944

> <CNN_VS>
1.6688094139

> <CNNaffinity_variance>
0.0561935902

$$$$



 42 46  0  0  0  0  0  0  0  0999 V2000
    4.4705   33.2777   57.3289 N   0  0  0  0  0  0  0  0  0  0  0  0
    5.8462   33.2187   57.2055 C   0  0  0  0  0  0  0  0  0  0  0  0
    6.5041   34.0034   56.5368 O   0  0  0  0  0  0  0  0  0  0  0  0
    4.0510   32.5657   57.8641 H   0  0  0  0  0  0  0  0  0  0  0  0
    1.8448   36.2631   55.8601 C   0  0  0  0  0  0  0  0  0  0  0  0
    2.3020   35.2626   54.9927 C   0  0  0  0  0  0  0  0  0  0  0  0
    3.1679   34.2564   55.4498 C   0  0  0  0  0  0  0  0  0  0  0  0
    3.5956   34.2414   56.7762 C   0  0  0  0  0  0  0  0  0  0  0  0
    3.1369   35.2515   57.6318 C   0  0  0  0  0  0  0  0  0  0  0  0
    3.5444   35.2634   58.9134 F   0  0  0  0  0  0  0  0  0  0  0  0
    2.2579   36.2428   57.1992 C   0  0  0  0  0  0  0  0  0  0  0  0
    1.1900   38.5283   54.8622 C   0  0  0  0  0  0  0  0  0  0  0  0
    0.0637   39.1142   54.4817 N   0  0  0  0  0  0  0  0  0  0  0  0
   -0.9276   38.2706   54.8609 C   0  0  0  0  0  0  0  0  0  0  0  0
   -2.2282   38.5013   54.6553 F   0  0  0  0  0  0  0  0  0  0  0  0
   -0.4357   37.1531   55.4738 C   0  0  0  0  0  0  0  0  0  0  0  0
    0.9394   37.2712   55.4185 N   0  0  0  0  0  0  0  0  0  0  0  0
    2.5250   39.2234   54.8088 C   0  0  0  0  0  0  0  0  0  0  0  0
    2.5875   38.1672   52.6446 C   0  0  0  0  0  0  0  0  0  0  0  0
    3.1106   39.2747   53.4517 N   0  0  0  0  0  0  0  0  0  0  0  0
    2.8000   40.5514   52.7942 C   0  0  0  0  0  0  0  0  0  0  0  0
    6.4570   32.1114   57.9144 C   0  0  0  0  0  0  0  0  0  0  0  0
    6.4169   30.7616   57.6040 C   0  0  0  0  0  0  0  0  0  0  0  0
    7.3532   30.1267   58.4511 C   0  0  0  0  0  0  0  0  0  0  0  0
    7.9304   31.0238   59.2611 N   0  0  0  0  0  0  0  0  0  0  0  0
    7.3062   32.2109   59.0151 N   0  0  0  0  0  0  0  0  0  0  0  0
    7.5559   33.3009   59.9098 C   0  0  0  0  0  0  0  0  0  0  0  0
    6.5101   33.7407   60.7501 C   0  0  0  0  0  0  0  0  0  0  0  0
    6.6865   34.7892   61.6651 C   0  0  0  0  0  0  0  0  0  0  0  0
    7.9448   35.3804   61.6852 C   0  0  0  0  0  0  0  0  0  0  0  0
    8.3429   36.3946   62.4981 O   0  0  0  0  0  0  0  0  0  0  0  0
    9.6607   36.7168   62.2220 N   0  0  0  0  0  0  0  0  0  0  0  0
   10.0373   35.8966   61.2385 C   0  0  0  0  0  0  0  0  0  0  0  0
   11.2613   35.8960   60.6811 N   0  0  0  0  0  0  0  0  0  0  0  0
    8.9915   35.0143   60.8611 C   0  0  0  0  0  0  0  0  0  0  0  0
    8.7991   33.9635   59.9371 C   0  0  0  0  0  0  0  0  0  0  0  0
   11.9430   36.5359   60.9896 H   0  0  0  0  0  0  0  0  0  0  0  0
   11.4755   35.2558   59.9646 H   0  0  0  0  0  0  0  0  0  0  0  0
    7.7234   28.6646   58.4534 C   0  0  0  0  0  0  0  0  0  0  0  0
    7.0712   27.9600   59.4156 F   0  0  0  0  0  0  0  0  0  0  0  0
    9.0544   28.4688   58.6399 F   0  0  0  0  0  0  0  0  0  0  0  0
    7.4110   28.0736   57.2659 F   0  0  0  0  0  0  0  0  0  0  0  0
 19 20  1  0
 20 21  1  0
 20 18  1  0
 18 12  1  0
 12 13  2  0
 13 14  1  0
 14 15  1  0
 14 16  2  0
 16 17  1  0
 17  5  1  0
  5  6  2  0
  6  7  1  0
  7  8  2  0
  8  1  1  0
  1  2  1  0
  2  3  2  0
  2 22  1  0
 22 23  2  0
 23 24  1  0
 24 39  1  0
 39 40  1  0
 39 41  1  0
 39 42  1  0
 24 25  2  0
 25 26  1  0
 26 27  1  0
 27 28  2  0
 28 29  1  0
 29 30  2  0
 30 31  1  0
 31 32  1  0
 32 33  2  0
 33 34  1  0
 33 35  1  0
 35 36  2  0
  8  9  1  0
  9 10  1  0
  9 11  2  0
 17 12  1  0
 11  5  1  0
 26 22  1  0
 36 27  1  0
 35 30  1  0
  1  4  1  0
 34 37  1  0
 34 38  1  0
M  END
> <minimizedAffinity>
-8.04742

> <CNNscore>
0.2213423997

> <CNNaffinity>
6.5146732330

> <CNN_VS>
1.4419734478

> <CNNaffinity_variance>
0.0678492859

$$$$



 42 46  0  0  0  0  0  0  0  0999 V2000
    4.6094   33.2553   57.3582 N   0  0  0  0  0  0  0  0  0  0  0  0
    5.9902   33.2519   57.2916 C   0  0  0  0  0  0  0  0  0  0  0  0
    6.6459   34.1044   56.7092 O   0  0  0  0  0  0  0  0  0  0  0  0
    4.1946   32.4931   57.8232 H   0  0  0  0  0  0  0  0  0  0  0  0
    1.9454   36.2526   55.9857 C   0  0  0  0  0  0  0  0  0  0  0  0
    2.4343   35.3011   55.0813 C   0  0  0  0  0  0  0  0  0  0  0  0
    3.3137   34.2921   55.5057 C   0  0  0  0  0  0  0  0  0  0  0  0
    3.7232   34.2258   56.8362 C   0  0  0  0  0  0  0  0  0  0  0  0
    3.2327   35.1874   57.7293 C   0  0  0  0  0  0  0  0  0  0  0  0
    3.6221   35.1496   59.0159 F   0  0  0  0  0  0  0  0  0  0  0  0
    2.3402   36.1801   57.3285 C   0  0  0  0  0  0  0  0  0  0  0  0
    1.2590   38.5219   55.0188 C   0  0  0  0  0  0  0  0  0  0  0  0
    0.1213   39.1085   54.6751 N   0  0  0  0  0  0  0  0  0  0  0  0
   -0.8575   38.2621   55.0797 C   0  0  0  0  0  0  0  0  0  0  0  0
   -2.1638   38.4925   54.9142 F   0  0  0  0  0  0  0  0  0  0  0  0
   -0.3465   37.1421   55.6721 C   0  0  0  0  0  0  0  0  0  0  0  0
    1.0263   37.2619   55.5763 N   0  0  0  0  0  0  0  0  0  0  0  0
    2.5912   39.2186   54.9290 C   0  0  0  0  0  0  0  0  0  0  0  0
    2.6405   38.1986   52.7471 C   0  0  0  0  0  0  0  0  0  0  0  0
    3.1035   39.3378   53.5468 N   0  0  0  0  0  0  0  0  0  0  0  0
    2.6513   40.5903   52.9258 C   0  0  0  0  0  0  0  0  0  0  0  0
    6.6115   32.1181   57.9476 C   0  0  0  0  0  0  0  0  0  0  0  0
    6.5085   30.7739   57.6276 C   0  0  0  0  0  0  0  0  0  0  0  0
    7.4784   30.1007   58.4042 C   0  0  0  0  0  0  0  0  0  0  0  0
    8.1360   30.9699   59.1825 N   0  0  0  0  0  0  0  0  0  0  0  0
    7.5346   32.1786   58.9901 N   0  0  0  0  0  0  0  0  0  0  0  0
    7.8773   33.2498   59.8767 C   0  0  0  0  0  0  0  0  0  0  0  0
    9.2246   33.6657   59.9475 C   0  0  0  0  0  0  0  0  0  0  0  0
    9.6314   34.7203   60.7781 C   0  0  0  0  0  0  0  0  0  0  0  0
    8.6347   35.3212   61.5390 C   0  0  0  0  0  0  0  0  0  0  0  0
    8.7965   36.3654   62.3941 O   0  0  0  0  0  0  0  0  0  0  0  0
    7.5787   36.6812   62.9720 N   0  0  0  0  0  0  0  0  0  0  0  0
    6.6991   35.8157   62.4628 C   0  0  0  0  0  0  0  0  0  0  0  0
    5.3921   35.7916   62.7787 N   0  0  0  0  0  0  0  0  0  0  0  0
    7.3093   34.9313   61.5354 C   0  0  0  0  0  0  0  0  0  0  0  0
    6.9133   33.8618   60.7021 C   0  0  0  0  0  0  0  0  0  0  0  0
    5.0315   36.4344   63.4314 H   0  0  0  0  0  0  0  0  0  0  0  0
    4.7959   35.1311   62.3573 H   0  0  0  0  0  0  0  0  0  0  0  0
    7.8017   28.6279   58.3677 C   0  0  0  0  0  0  0  0  0  0  0  0
    9.1190   28.3746   58.5873 F   0  0  0  0  0  0  0  0  0  0  0  0
    7.4714   28.0555   57.1811 F   0  0  0  0  0  0  0  0  0  0  0  0
    7.1142   27.9469   59.3271 F   0  0  0  0  0  0  0  0  0  0  0  0
 19 20  1  0
 20 21  1  0
 20 18  1  0
 18 12  1  0
 12 13  2  0
 13 14  1  0
 14 15  1  0
 14 16  2  0
 16 17  1  0
 17  5  1  0
  5  6  2  0
  6  7  1  0
  7  8  2  0
  8  1  1  0
  1  2  1  0
  2  3  2  0
  2 22  1  0
 22 23  2  0
 23 24  1  0
 24 39  1  0
 39 40  1  0
 39 41  1  0
 39 42  1  0
 24 25  2  0
 25 26  1  0
 26 27  1  0
 27 28  2  0
 28 29  1  0
 29 30  2  0
 30 31  1  0
 31 32  1  0
 32 33  2  0
 33 34  1  0
 33 35  1  0
 35 36  2  0
  8  9  1  0
  9 10  1  0
  9 11  2  0
 17 12  1  0
 11  5  1  0
 26 22  1  0
 36 27  1  0
 35 30  1  0
  1  4  1  0
 34 37  1  0
 34 38  1  0
M  END
> <minimizedAffinity>
-7.76458

> <CNNscore>
0.2154733390

> <CNNaffinity>
6.4164333344

> <CNN_VS>
1.3825702667

> <CNNaffinity_variance>
0.0204287563

$$$$
