


 32 35  0  0  0  0  0  0  0  0999 V2000
    3.5582   31.5298    7.6428 C   0  0  0  0  0  0  0  0  0  0  0  0
    3.5933   31.2781    8.9577 N   0  0  0  0  0  0  0  0  0  0  0  0
    4.2402   30.1690    9.3491 C   0  0  0  0  0  0  0  0  0  0  0  0
    4.8600   29.3089    8.4796 C   0  0  0  0  0  0  0  0  0  0  0  0
    4.7810   29.6368    7.1437 C   0  0  0  0  0  0  0  0  0  0  0  0
    4.1458   30.7464    6.7273 N   0  0  0  0  0  0  0  0  0  0  0  0
    2.9163   32.6469    7.1159 N   0  0  0  0  0  0  0  0  0  0  0  0
    2.7867   33.3614    7.7807 H   0  0  0  0  0  0  0  0  0  0  0  0
    1.5287   33.6320    3.2451 C   0  0  0  0  0  0  0  0  0  0  0  0
    0.7725   33.9950    4.3620 C   0  0  0  0  0  0  0  0  0  0  0  0
    1.2155   33.6723    5.6516 C   0  0  0  0  0  0  0  0  0  0  0  0
    2.4148   32.9823    5.8564 C   0  0  0  0  0  0  0  0  0  0  0  0
    3.1652   32.6300    4.7218 C   0  0  0  0  0  0  0  0  0  0  0  0
    2.7313   32.9462    3.4287 C   0  0  0  0  0  0  0  0  0  0  0  0
    1.2677   33.4055    0.8612 O   0  0  0  0  0  0  0  0  0  0  0  0
    1.0212   33.9920    1.8992 C   0  0  0  0  0  0  0  0  0  0  0  0
    0.2246   35.0758    1.9144 O   0  0  0  0  0  0  0  0  0  0  0  0
    0.0458   35.5146    2.7227 H   0  0  0  0  0  0  0  0  0  0  0  0
    5.3960   28.7650    6.2066 N   0  0  0  0  0  0  0  0  0  0  0  0
    5.7408   27.9022    6.5319 H   0  0  0  0  0  0  0  0  0  0  0  0
    5.5418   29.0677    4.8253 C   0  0  0  0  0  0  0  0  0  0  0  0
    4.3816   29.1768    4.0367 C   0  0  0  0  0  0  0  0  0  0  0  0
    4.4650   29.4118    2.6638 C   0  0  0  0  0  0  0  0  0  0  0  0
    5.7088   29.5383    2.0568 C   0  0  0  0  0  0  0  0  0  0  0  0
    6.8703   29.4367    2.8241 C   0  0  0  0  0  0  0  0  0  0  0  0
    6.8141   29.2037    4.2127 C   0  0  0  0  0  0  0  0  0  0  0  0
    8.0766   29.1678    4.9756 C   0  0  0  0  0  0  0  0  0  0  0  0
    8.7957   27.9703    5.1205 C   0  0  0  0  0  0  0  0  0  0  0  0
    9.9895   27.9321    5.8447 C   0  0  0  0  0  0  0  0  0  0  0  0
   10.4834   29.0930    6.4354 C   0  0  0  0  0  0  0  0  0  0  0  0
    9.7833   30.2903    6.3051 C   0  0  0  0  0  0  0  0  0  0  0  0
    8.5866   30.3257    5.5850 C   0  0  0  0  0  0  0  0  0  0  0  0
 15 16  2  0
 16 17  1  0
 16  9  1  0
  9 10  2  0
 10 11  1  0
 11 12  2  0
 12  7  1  0
  7  1  1  0
  1  2  2  0
  2  3  1  0
  3  4  2  0
  4  5  1  0
  5 19  1  0
 19 21  1  0
 21 22  2  0
 22 23  1  0
 23 24  2  0
 24 25  1  0
 25 26  2  0
 26 27  1  0
 27 28  2  0
 28 29  1  0
 29 30  2  0
 30 31  1  0
 31 32  2  0
  5  6  2  0
 12 13  1  0
 13 14  2  0
 14  9  1  0
  6  1  1  0
 26 21  1  0
 32 27  1  0
 17 18  1  0
  7  8  1  0
 19 20  1  0
M  END
> <minimizedAffinity>
-9.70563

> <CNNscore>
0.9847798944

> <CNNaffinity>
7.6040196419

> <CNN_VS>
7.4882855415

> <CNNaffinity_variance>
0.0174545627

$$$$



 32 35  0  0  0  0  0  0  0  0999 V2000
    3.5400   31.6786    7.5996 C   0  0  0  0  0  0  0  0  0  0  0  0
    3.4302   31.5718    8.9299 N   0  0  0  0  0  0  0  0  0  0  0  0
    3.9921   30.4963    9.5037 C   0  0  0  0  0  0  0  0  0  0  0  0
    4.6660   29.5305    8.8015 C   0  0  0  0  0  0  0  0  0  0  0  0
    4.7371   29.7118    7.4375 C   0  0  0  0  0  0  0  0  0  0  0  0
    4.1895   30.7849    6.8403 N   0  0  0  0  0  0  0  0  0  0  0  0
    2.9974   32.7472    6.8915 N   0  0  0  0  0  0  0  0  0  0  0  0
    2.8012   33.5238    7.4640 H   0  0  0  0  0  0  0  0  0  0  0  0
    1.8624   33.4241    2.8750 C   0  0  0  0  0  0  0  0  0  0  0  0
    3.1295   32.9077    3.1561 C   0  0  0  0  0  0  0  0  0  0  0  0
    3.5232   32.6817    4.4817 C   0  0  0  0  0  0  0  0  0  0  0  0
    2.6687   32.9656    5.5519 C   0  0  0  0  0  0  0  0  0  0  0  0
    1.3960   33.4793    5.2503 C   0  0  0  0  0  0  0  0  0  0  0  0
    0.9928   33.7102    3.9295 C   0  0  0  0  0  0  0  0  0  0  0  0
    2.2210   33.5172    0.4949 O   0  0  0  0  0  0  0  0  0  0  0  0
    1.4882   33.6493    1.4580 C   0  0  0  0  0  0  0  0  0  0  0  0
    0.2071   34.0321    1.3109 O   0  0  0  0  0  0  0  0  0  0  0  0
   -0.3424   34.1287    2.0637 H   0  0  0  0  0  0  0  0  0  0  0  0
    5.4128   28.7271    6.6692 N   0  0  0  0  0  0  0  0  0  0  0  0
    4.9596   28.3683    5.8723 H   0  0  0  0  0  0  0  0  0  0  0  0
    6.7065   28.2303    6.9858 C   0  0  0  0  0  0  0  0  0  0  0  0
    7.0046   27.9453    8.3311 C   0  0  0  0  0  0  0  0  0  0  0  0
    8.2763   27.5133    8.7097 C   0  0  0  0  0  0  0  0  0  0  0  0
    9.2708   27.3623    7.7506 C   0  0  0  0  0  0  0  0  0  0  0  0
    8.9919   27.6368    6.4109 C   0  0  0  0  0  0  0  0  0  0  0  0
    7.7154   28.0705    6.0013 C   0  0  0  0  0  0  0  0  0  0  0  0
    7.4691   28.2846    4.5622 C   0  0  0  0  0  0  0  0  0  0  0  0
    7.9186   29.4504    3.9212 C   0  0  0  0  0  0  0  0  0  0  0  0
    7.6843   29.6578    2.5599 C   0  0  0  0  0  0  0  0  0  0  0  0
    6.9965   28.7005    1.8177 C   0  0  0  0  0  0  0  0  0  0  0  0
    6.5403   27.5385    2.4360 C   0  0  0  0  0  0  0  0  0  0  0  0
    6.7707   27.3351    3.7988 C   0  0  0  0  0  0  0  0  0  0  0  0
 15 16  2  0
 16 17  1  0
 16  9  1  0
  9 10  2  0
 10 11  1  0
 11 12  2  0
 12  7  1  0
  7  1  1  0
  1  2  2  0
  2  3  1  0
  3  4  2  0
  4  5  1  0
  5 19  1  0
 19 21  1  0
 21 22  2  0
 22 23  1  0
 23 24  2  0
 24 25  1  0
 25 26  2  0
 26 27  1  0
 27 28  2  0
 28 29  1  0
 29 30  2  0
 30 31  1  0
 31 32  2  0
  5  6  2  0
 12 13  1  0
 13 14  2  0
 14  9  1  0
  6  1  1  0
 26 21  1  0
 32 27  1  0
 17 18  1  0
  7  8  1  0
 19 20  1  0
M  END
> <minimizedAffinity>
-9.96781

> <CNNscore>
0.9846301675

> <CNNaffinity>
7.3785762787

> <CNN_VS>
7.2651686668

> <CNNaffinity_variance>
0.0333529226

$$$$



 32 35  0  0  0  0  0  0  0  0999 V2000
    3.6279   31.6936    7.6719 C   0  0  0  0  0  0  0  0  0  0  0  0
    3.4854   31.6576    9.0029 N   0  0  0  0  0  0  0  0  0  0  0  0
    3.9846   30.5873    9.6409 C   0  0  0  0  0  0  0  0  0  0  0  0
    4.6278   29.5586    9.0020 C   0  0  0  0  0  0  0  0  0  0  0  0
    4.7358   29.6690    7.6329 C   0  0  0  0  0  0  0  0  0  0  0  0
    4.2512   30.7350    6.9720 N   0  0  0  0  0  0  0  0  0  0  0  0
    3.1505   32.7494    6.9006 N   0  0  0  0  0  0  0  0  0  0  0  0
    3.2163   33.6177    7.3600 H   0  0  0  0  0  0  0  0  0  0  0  0
    1.6078   33.0209    2.9731 C   0  0  0  0  0  0  0  0  0  0  0  0
    0.9177   33.6220    4.0283 C   0  0  0  0  0  0  0  0  0  0  0  0
    1.4126   33.5377    5.3365 C   0  0  0  0  0  0  0  0  0  0  0  0
    2.5990   32.8542    5.6219 C   0  0  0  0  0  0  0  0  0  0  0  0
    3.2829   32.2604    4.5475 C   0  0  0  0  0  0  0  0  0  0  0  0
    2.7967   32.3374    3.2368 C   0  0  0  0  0  0  0  0  0  0  0  0
    0.2784   33.9935    1.2156 O   0  0  0  0  0  0  0  0  0  0  0  0
    1.0469   33.1334    1.6051 C   0  0  0  0  0  0  0  0  0  0  0  0
    1.4757   32.1587    0.7833 O   0  0  0  0  0  0  0  0  0  0  0  0
    2.0673   31.5049    1.1005 H   0  0  0  0  0  0  0  0  0  0  0  0
    5.3812   28.6181    6.9290 N   0  0  0  0  0  0  0  0  0  0  0  0
    5.1025   27.6929    7.1179 H   0  0  0  0  0  0  0  0  0  0  0  0
    6.4069   28.8264    5.9669 C   0  0  0  0  0  0  0  0  0  0  0  0
    6.0958   29.5506    4.8013 C   0  0  0  0  0  0  0  0  0  0  0  0
    7.0443   29.7344    3.7946 C   0  0  0  0  0  0  0  0  0  0  0  0
    8.3174   29.1949    3.9353 C   0  0  0  0  0  0  0  0  0  0  0  0
    8.6448   28.4768    5.0864 C   0  0  0  0  0  0  0  0  0  0  0  0
    7.7071   28.2800    6.1196 C   0  0  0  0  0  0  0  0  0  0  0  0
    8.1355   27.5641    7.3368 C   0  0  0  0  0  0  0  0  0  0  0  0
    7.9987   28.1539    8.6038 C   0  0  0  0  0  0  0  0  0  0  0  0
    8.4062   27.4804    9.7577 C   0  0  0  0  0  0  0  0  0  0  0  0
    8.9569   26.2045    9.6618 C   0  0  0  0  0  0  0  0  0  0  0  0
    9.1032   25.6034    8.4136 C   0  0  0  0  0  0  0  0  0  0  0  0
    8.7002   26.2806    7.2599 C   0  0  0  0  0  0  0  0  0  0  0  0
 15 16  2  0
 16 17  1  0
 16  9  1  0
  9 10  2  0
 10 11  1  0
 11 12  2  0
 12  7  1  0
  7  1  1  0
  1  2  2  0
  2  3  1  0
  3  4  2  0
  4  5  1  0
  5 19  1  0
 19 21  1  0
 21 22  2  0
 22 23  1  0
 23 24  2  0
 24 25  1  0
 25 26  2  0
 26 27  1  0
 27 28  2  0
 28 29  1  0
 29 30  2  0
 30 31  1  0
 31 32  2  0
  5  6  2  0
 12 13  1  0
 13 14  2  0
 14  9  1  0
  6  1  1  0
 26 21  1  0
 32 27  1  0
 17 18  1  0
  7  8  1  0
 19 20  1  0
M  END
> <minimizedAffinity>
-10.37715

> <CNNscore>
0.9831491113

> <CNNaffinity>
7.4455757141

> <CNN_VS>
7.3201112747

> <CNNaffinity_variance>
0.0181095973

$$$$



 32 35  0  0  0  0  0  0  0  0999 V2000
    3.7108   30.7597    6.0390 C   0  0  0  0  0  0  0  0  0  0  0  0
    3.1603   31.2111    7.1732 N   0  0  0  0  0  0  0  0  0  0  0  0
    3.6204   30.6927    8.3227 C   0  0  0  0  0  0  0  0  0  0  0  0
    4.6139   29.7496    8.3823 C   0  0  0  0  0  0  0  0  0  0  0  0
    5.1306   29.3369    7.1736 C   0  0  0  0  0  0  0  0  0  0  0  0
    4.6922   29.8469    6.0093 N   0  0  0  0  0  0  0  0  0  0  0  0
    3.3161   31.2196    4.7858 N   0  0  0  0  0  0  0  0  0  0  0  0
    3.5838   30.6154    4.0561 H   0  0  0  0  0  0  0  0  0  0  0  0
    1.1467   34.6251    3.5308 C   0  0  0  0  0  0  0  0  0  0  0  0
    1.9378   33.9334    2.6105 C   0  0  0  0  0  0  0  0  0  0  0  0
    2.6667   32.8057    3.0108 C   0  0  0  0  0  0  0  0  0  0  0  0
    2.6258   32.3451    4.3308 C   0  0  0  0  0  0  0  0  0  0  0  0
    1.8205   33.0497    5.2416 C   0  0  0  0  0  0  0  0  0  0  0  0
    1.0892   34.1785    4.8527 C   0  0  0  0  0  0  0  0  0  0  0  0
   -0.3642   35.8528    2.1123 O   0  0  0  0  0  0  0  0  0  0  0  0
    0.3937   35.8142    3.0642 C   0  0  0  0  0  0  0  0  0  0  0  0
    0.6258   36.9064    3.8144 O   0  0  0  0  0  0  0  0  0  0  0  0
    1.2124   36.8581    4.5434 H   0  0  0  0  0  0  0  0  0  0  0  0
    6.1511   28.3495    7.1880 N   0  0  0  0  0  0  0  0  0  0  0  0
    6.0254   27.5601    7.7627 H   0  0  0  0  0  0  0  0  0  0  0  0
    7.3439   28.4366    6.4196 C   0  0  0  0  0  0  0  0  0  0  0  0
    7.2936   29.0919    5.1754 C   0  0  0  0  0  0  0  0  0  0  0  0
    8.4172   29.1554    4.3504 C   0  0  0  0  0  0  0  0  0  0  0  0
    9.6076   28.5626    4.7542 C   0  0  0  0  0  0  0  0  0  0  0  0
    9.6769   27.9115    5.9868 C   0  0  0  0  0  0  0  0  0  0  0  0
    8.5584   27.8363    6.8405 C   0  0  0  0  0  0  0  0  0  0  0  0
    8.7152   27.1869    8.1562 C   0  0  0  0  0  0  0  0  0  0  0  0
    9.0514   25.8268    8.2516 C   0  0  0  0  0  0  0  0  0  0  0  0
    9.1974   25.2082    9.4954 C   0  0  0  0  0  0  0  0  0  0  0  0
    9.0098   25.9418   10.6646 C   0  0  0  0  0  0  0  0  0  0  0  0
    8.6735   27.2917   10.5909 C   0  0  0  0  0  0  0  0  0  0  0  0
    8.5224   27.9076    9.3460 C   0  0  0  0  0  0  0  0  0  0  0  0
 15 16  2  0
 16 17  1  0
 16  9  1  0
  9 10  2  0
 10 11  1  0
 11 12  2  0
 12  7  1  0
  7  1  1  0
  1  2  2  0
  2  3  1  0
  3  4  2  0
  4  5  1  0
  5 19  1  0
 19 21  1  0
 21 22  2  0
 22 23  1  0
 23 24  2  0
 24 25  1  0
 25 26  2  0
 26 27  1  0
 27 28  2  0
 28 29  1  0
 29 30  2  0
 30 31  1  0
 31 32  2  0
  5  6  2  0
 12 13  1  0
 13 14  2  0
 14  9  1  0
  6  1  1  0
 26 21  1  0
 32 27  1  0
 17 18  1  0
  7  8  1  0
 19 20  1  0
M  END
> <minimizedAffinity>
-9.76747

> <CNNscore>
0.8389260173

> <CNNaffinity>
7.2119522095

> <CNN_VS>
6.0502943993

> <CNNaffinity_variance>
0.0427330621

$$$$



 32 35  0  0  0  0  0  0  0  0999 V2000
    4.0452   30.6271    6.9158 C   0  0  0  0  0  0  0  0  0  0  0  0
    4.2745   30.2563    8.1820 N   0  0  0  0  0  0  0  0  0  0  0  0
    5.0799   29.1993    8.3715 C   0  0  0  0  0  0  0  0  0  0  0  0
    5.6711   28.5063    7.3467 C   0  0  0  0  0  0  0  0  0  0  0  0
    5.3877   28.9492    6.0732 C   0  0  0  0  0  0  0  0  0  0  0  0
    4.5906   30.0104    5.8578 N   0  0  0  0  0  0  0  0  0  0  0  0
    3.2266   31.7057    6.5929 N   0  0  0  0  0  0  0  0  0  0  0  0
    2.9062   32.1924    7.3864 H   0  0  0  0  0  0  0  0  0  0  0  0
    1.6849   33.4031    3.0403 C   0  0  0  0  0  0  0  0  0  0  0  0
    2.7880   32.5488    2.9743 C   0  0  0  0  0  0  0  0  0  0  0  0
    3.3143   31.9814    4.1425 C   0  0  0  0  0  0  0  0  0  0  0  0
    2.7576   32.2527    5.3965 C   0  0  0  0  0  0  0  0  0  0  0  0
    1.6450   33.1097    5.4434 C   0  0  0  0  0  0  0  0  0  0  0  0
    1.1119   33.6831    4.2827 C   0  0  0  0  0  0  0  0  0  0  0  0
    0.1148   34.5902    1.6519 O   0  0  0  0  0  0  0  0  0  0  0  0
    1.1620   33.9826    1.7796 C   0  0  0  0  0  0  0  0  0  0  0  0
    1.9781   33.7734    0.7309 O   0  0  0  0  0  0  0  0  0  0  0  0
    2.7803   33.3036    0.8480 H   0  0  0  0  0  0  0  0  0  0  0  0
    5.9668   28.2505    4.9810 N   0  0  0  0  0  0  0  0  0  0  0  0
    5.5451   28.3407    4.0959 H   0  0  0  0  0  0  0  0  0  0  0  0
    7.1209   27.4281    5.0933 C   0  0  0  0  0  0  0  0  0  0  0  0
    7.3147   26.7036    6.2839 C   0  0  0  0  0  0  0  0  0  0  0  0
    8.4587   25.9280    6.4753 C   0  0  0  0  0  0  0  0  0  0  0  0
    9.4284   25.8666    5.4816 C   0  0  0  0  0  0  0  0  0  0  0  0
    9.2512   26.5757    4.2926 C   0  0  0  0  0  0  0  0  0  0  0  0
    8.1036   27.3631    4.0722 C   0  0  0  0  0  0  0  0  0  0  0  0
    7.9487   28.0385    2.7695 C   0  0  0  0  0  0  0  0  0  0  0  0
    7.1050   27.5081    1.7801 C   0  0  0  0  0  0  0  0  0  0  0  0
    6.9585   28.1431    0.5446 C   0  0  0  0  0  0  0  0  0  0  0  0
    7.6542   29.3206    0.2798 C   0  0  0  0  0  0  0  0  0  0  0  0
    8.4979   29.8612    1.2475 C   0  0  0  0  0  0  0  0  0  0  0  0
    8.6475   29.2219    2.4807 C   0  0  0  0  0  0  0  0  0  0  0  0
 15 16  2  0
 16 17  1  0
 16  9  1  0
  9 10  2  0
 10 11  1  0
 11 12  2  0
 12  7  1  0
  7  1  1  0
  1  2  2  0
  2  3  1  0
  3  4  2  0
  4  5  1  0
  5 19  1  0
 19 21  1  0
 21 22  2  0
 22 23  1  0
 23 24  2  0
 24 25  1  0
 25 26  2  0
 26 27  1  0
 27 28  2  0
 28 29  1  0
 29 30  2  0
 30 31  1  0
 31 32  2  0
  5  6  2  0
 12 13  1  0
 13 14  2  0
 14  9  1  0
  6  1  1  0
 26 21  1  0
 32 27  1  0
 17 18  1  0
  7  8  1  0
 19 20  1  0
M  END
> <minimizedAffinity>
-9.23543

> <CNNscore>
0.7776562572

> <CNNaffinity>
6.9254188538

> <CNN_VS>
5.3855953217

> <CNNaffinity_variance>
0.0949233994

$$$$



 32 35  0  0  0  0  0  0  0  0999 V2000
    3.4549   31.3441    5.4857 C   0  0  0  0  0  0  0  0  0  0  0  0
    3.2113   31.7521    6.7377 N   0  0  0  0  0  0  0  0  0  0  0  0
    3.7405   31.0210    7.7312 C   0  0  0  0  0  0  0  0  0  0  0  0
    4.5100   29.9056    7.5216 C   0  0  0  0  0  0  0  0  0  0  0  0
    4.7166   29.5506    6.2065 C   0  0  0  0  0  0  0  0  0  0  0  0
    4.2041   30.2714    5.1936 N   0  0  0  0  0  0  0  0  0  0  0  0
    2.9590   32.0183    4.3735 N   0  0  0  0  0  0  0  0  0  0  0  0
    3.2652   31.6282    3.5230 H   0  0  0  0  0  0  0  0  0  0  0  0
    0.4947   35.3867    3.6949 C   0  0  0  0  0  0  0  0  0  0  0  0
    0.5852   34.8458    4.9796 C   0  0  0  0  0  0  0  0  0  0  0  0
    1.3936   33.7270    5.2209 C   0  0  0  0  0  0  0  0  0  0  0  0
    2.1247   33.1236    4.1925 C   0  0  0  0  0  0  0  0  0  0  0  0
    2.0261   33.6843    2.9078 C   0  0  0  0  0  0  0  0  0  0  0  0
    1.2204   34.8012    2.6553 C   0  0  0  0  0  0  0  0  0  0  0  0
   -1.5811   36.5519    3.3271 O   0  0  0  0  0  0  0  0  0  0  0  0
   -0.3740   36.5697    3.4845 C   0  0  0  0  0  0  0  0  0  0  0  0
    0.3118   37.7269    3.4802 O   0  0  0  0  0  0  0  0  0  0  0  0
    1.2407   37.7215    3.6030 H   0  0  0  0  0  0  0  0  0  0  0  0
    5.4952   28.3925    5.9439 N   0  0  0  0  0  0  0  0  0  0  0  0
    5.1498   27.7382    5.2944 H   0  0  0  0  0  0  0  0  0  0  0  0
    6.7451   28.1245    6.5658 C   0  0  0  0  0  0  0  0  0  0  0  0
    6.7729   27.9319    7.9594 C   0  0  0  0  0  0  0  0  0  0  0  0
    7.9777   27.7261    8.6327 C   0  0  0  0  0  0  0  0  0  0  0  0
    9.1735   27.7125    7.9247 C   0  0  0  0  0  0  0  0  0  0  0  0
    9.1646   27.8981    6.5414 C   0  0  0  0  0  0  0  0  0  0  0  0
    7.9618   28.1039    5.8367 C   0  0  0  0  0  0  0  0  0  0  0  0
    8.0158   28.2324    4.3677 C   0  0  0  0  0  0  0  0  0  0  0  0
    8.1203   29.4938    3.7594 C   0  0  0  0  0  0  0  0  0  0  0  0
    8.1683   29.6193    2.3690 C   0  0  0  0  0  0  0  0  0  0  0  0
    8.1133   28.4832    1.5647 C   0  0  0  0  0  0  0  0  0  0  0  0
    8.0072   27.2231    2.1493 C   0  0  0  0  0  0  0  0  0  0  0  0
    7.9537   27.0997    3.5399 C   0  0  0  0  0  0  0  0  0  0  0  0
 15 16  2  0
 16 17  1  0
 16  9  1  0
  9 10  2  0
 10 11  1  0
 11 12  2  0
 12  7  1  0
  7  1  1  0
  1  2  2  0
  2  3  1  0
  3  4  2  0
  4  5  1  0
  5 19  1  0
 19 21  1  0
 21 22  2  0
 22 23  1  0
 23 24  2  0
 24 25  1  0
 25 26  2  0
 26 27  1  0
 27 28  2  0
 28 29  1  0
 29 30  2  0
 30 31  1  0
 31 32  2  0
  5  6  2  0
 12 13  1  0
 13 14  2  0
 14  9  1  0
  6  1  1  0
 26 21  1  0
 32 27  1  0
 17 18  1  0
  7  8  1  0
 19 20  1  0
M  END
> <minimizedAffinity>
-8.71644

> <CNNscore>
0.4557484686

> <CNNaffinity>
6.6813530922

> <CNN_VS>
3.0450165272

> <CNNaffinity_variance>
0.0122380108

$$$$



 32 35  0  0  0  0  0  0  0  0999 V2000
    3.9100   31.7867    5.4867 C   0  0  0  0  0  0  0  0  0  0  0  0
    3.3912   32.1337    6.6715 N   0  0  0  0  0  0  0  0  0  0  0  0
    3.5325   31.2581    7.6791 C   0  0  0  0  0  0  0  0  0  0  0  0
    4.1794   30.0560    7.5505 C   0  0  0  0  0  0  0  0  0  0  0  0
    4.6868   29.7716    6.3015 C   0  0  0  0  0  0  0  0  0  0  0  0
    4.5652   30.6358    5.2786 N   0  0  0  0  0  0  0  0  0  0  0  0
    3.8251   32.6098    4.3674 N   0  0  0  0  0  0  0  0  0  0  0  0
    4.4829   33.3421    4.3816 H   0  0  0  0  0  0  0  0  0  0  0  0
    1.4974   32.6553    0.8377 C   0  0  0  0  0  0  0  0  0  0  0  0
    0.9299   33.0733    2.0436 C   0  0  0  0  0  0  0  0  0  0  0  0
    1.6858   33.0602    3.2234 C   0  0  0  0  0  0  0  0  0  0  0  0
    3.0168   32.6305    3.2287 C   0  0  0  0  0  0  0  0  0  0  0  0
    3.5730   32.2188    2.0057 C   0  0  0  0  0  0  0  0  0  0  0  0
    2.8264   32.2266    0.8213 C   0  0  0  0  0  0  0  0  0  0  0  0
   -0.0163   33.6209   -0.7681 O   0  0  0  0  0  0  0  0  0  0  0  0
    0.6605   32.6838   -0.3860 C   0  0  0  0  0  0  0  0  0  0  0  0
    0.7090   31.5317   -1.0787 O   0  0  0  0  0  0  0  0  0  0  0  0
    1.2354   30.8210   -0.7694 H   0  0  0  0  0  0  0  0  0  0  0  0
    5.3511   28.5299    6.1197 N   0  0  0  0  0  0  0  0  0  0  0  0
    4.8981   27.8338    5.5910 H   0  0  0  0  0  0  0  0  0  0  0  0
    6.6335   28.2349    6.6578 C   0  0  0  0  0  0  0  0  0  0  0  0
    6.7497   28.0434    8.0469 C   0  0  0  0  0  0  0  0  0  0  0  0
    7.9917   27.8117    8.6392 C   0  0  0  0  0  0  0  0  0  0  0  0
    9.1373   27.7708    7.8533 C   0  0  0  0  0  0  0  0  0  0  0  0
    9.0404   27.9549    6.4732 C   0  0  0  0  0  0  0  0  0  0  0  0
    7.7983   28.1866    5.8495 C   0  0  0  0  0  0  0  0  0  0  0  0
    7.7572   28.3122    4.3798 C   0  0  0  0  0  0  0  0  0  0  0  0
    7.5933   27.1800    3.5655 C   0  0  0  0  0  0  0  0  0  0  0  0
    7.5572   27.2948    2.1738 C   0  0  0  0  0  0  0  0  0  0  0  0
    7.6841   28.5460    1.5747 C   0  0  0  0  0  0  0  0  0  0  0  0
    7.8500   29.6809    2.3653 C   0  0  0  0  0  0  0  0  0  0  0  0
    7.8913   29.5636    3.7568 C   0  0  0  0  0  0  0  0  0  0  0  0
 15 16  2  0
 16 17  1  0
 16  9  1  0
  9 10  2  0
 10 11  1  0
 11 12  2  0
 12  7  1  0
  7  1  1  0
  1  2  2  0
  2  3  1  0
  3  4  2  0
  4  5  1  0
  5 19  1  0
 19 21  1  0
 21 22  2  0
 22 23  1  0
 23 24  2  0
 24 25  1  0
 25 26  2  0
 26 27  1  0
 27 28  2  0
 28 29  1  0
 29 30  2  0
 30 31  1  0
 31 32  2  0
  5  6  2  0
 12 13  1  0
 13 14  2  0
 14  9  1  0
  6  1  1  0
 26 21  1  0
 32 27  1  0
 17 18  1  0
  7  8  1  0
 19 20  1  0
M  END
> <minimizedAffinity>
-8.29623

> <CNNscore>
0.3307550848

> <CNNaffinity>
6.4632496834

> <CNN_VS>
2.1377527714

> <CNNaffinity_variance>
0.0036127276

$$$$



 32 35  0  0  0  0  0  0  0  0999 V2000
    7.1536   28.1175    4.3732 C   0  0  0  0  0  0  0  0  0  0  0  0
    7.5117   28.5882    3.1718 N   0  0  0  0  0  0  0  0  0  0  0  0
    6.6700   29.4494    2.5786 C   0  0  0  0  0  0  0  0  0  0  0  0
    5.4915   29.8644    3.1433 C   0  0  0  0  0  0  0  0  0  0  0  0
    5.1938   29.3368    4.3807 C   0  0  0  0  0  0  0  0  0  0  0  0
    6.0244   28.4789    4.9989 N   0  0  0  0  0  0  0  0  0  0  0  0
    7.9421   27.2181    5.0853 N   0  0  0  0  0  0  0  0  0  0  0  0
    8.4147   26.5807    4.5026 H   0  0  0  0  0  0  0  0  0  0  0  0
    8.7947   26.4679    9.1583 C   0  0  0  0  0  0  0  0  0  0  0  0
    8.1352   27.6450    8.7971 C   0  0  0  0  0  0  0  0  0  0  0  0
    7.8491   27.9114    7.4515 C   0  0  0  0  0  0  0  0  0  0  0  0
    8.2135   27.0165    6.4403 C   0  0  0  0  0  0  0  0  0  0  0  0
    8.8711   25.8349    6.8224 C   0  0  0  0  0  0  0  0  0  0  0  0
    9.1631   25.5594    8.1637 C   0  0  0  0  0  0  0  0  0  0  0  0
    8.8769   25.1909   11.1991 O   0  0  0  0  0  0  0  0  0  0  0  0
    9.0790   26.2276   10.5936 C   0  0  0  0  0  0  0  0  0  0  0  0
    9.6055   27.3019   11.2085 O   0  0  0  0  0  0  0  0  0  0  0  0
    9.7541   28.0915   10.7265 H   0  0  0  0  0  0  0  0  0  0  0  0
    3.9748   29.7276    4.9955 N   0  0  0  0  0  0  0  0  0  0  0  0
    3.1384   29.5969    4.4929 H   0  0  0  0  0  0  0  0  0  0  0  0
    3.8940   30.2970    6.2955 C   0  0  0  0  0  0  0  0  0  0  0  0
    4.4725   29.5978    7.3709 C   0  0  0  0  0  0  0  0  0  0  0  0
    4.3716   30.0772    8.6774 C   0  0  0  0  0  0  0  0  0  0  0  0
    3.6888   31.2609    8.9304 C   0  0  0  0  0  0  0  0  0  0  0  0
    3.1120   31.9697    7.8755 C   0  0  0  0  0  0  0  0  0  0  0  0
    3.2024   31.5099    6.5466 C   0  0  0  0  0  0  0  0  0  0  0  0
    2.6237   32.3376    5.4708 C   0  0  0  0  0  0  0  0  0  0  0  0
    1.4780   33.1166    5.6999 C   0  0  0  0  0  0  0  0  0  0  0  0
    0.9256   33.8987    4.6829 C   0  0  0  0  0  0  0  0  0  0  0  0
    1.5122   33.9142    3.4195 C   0  0  0  0  0  0  0  0  0  0  0  0
    2.6478   33.1463    3.1717 C   0  0  0  0  0  0  0  0  0  0  0  0
    3.1958   32.3604    4.1885 C   0  0  0  0  0  0  0  0  0  0  0  0
 15 16  2  0
 16 17  1  0
 16  9  1  0
  9 10  2  0
 10 11  1  0
 11 12  2  0
 12  7  1  0
  7  1  1  0
  1  2  2  0
  2  3  1  0
  3  4  2  0
  4  5  1  0
  5 19  1  0
 19 21  1  0
 21 22  2  0
 22 23  1  0
 23 24  2  0
 24 25  1  0
 25 26  2  0
 26 27  1  0
 27 28  2  0
 28 29  1  0
 29 30  2  0
 30 31  1  0
 31 32  2  0
  5  6  2  0
 12 13  1  0
 13 14  2  0
 14  9  1  0
  6  1  1  0
 26 21  1  0
 32 27  1  0
 17 18  1  0
  7  8  1  0
 19 20  1  0
M  END
> <minimizedAffinity>
-11.17641

> <CNNscore>
0.2429719120

> <CNNaffinity>
5.8685817719

> <CNN_VS>
1.4259005785

> <CNNaffinity_variance>
0.7696889043

$$$$



 32 35  0  0  0  0  0  0  0  0999 V2000
    7.8656   29.2289    2.7630 C   0  0  0  0  0  0  0  0  0  0  0  0
    7.9892   29.5895    1.4792 N   0  0  0  0  0  0  0  0  0  0  0  0
    6.8725   29.9812    0.8456 C   0  0  0  0  0  0  0  0  0  0  0  0
    5.6416   30.0352    1.4473 C   0  0  0  0  0  0  0  0  0  0  0  0
    5.5961   29.6500    2.7693 C   0  0  0  0  0  0  0  0  0  0  0  0
    6.7020   29.2615    3.4281 N   0  0  0  0  0  0  0  0  0  0  0  0
    8.9504   28.8029    3.5240 N   0  0  0  0  0  0  0  0  0  0  0  0
    9.8153   28.9808    3.0886 H   0  0  0  0  0  0  0  0  0  0  0  0
    9.2947   26.8011    7.2326 C   0  0  0  0  0  0  0  0  0  0  0  0
    9.5770   28.1670    7.1572 C   0  0  0  0  0  0  0  0  0  0  0  0
    9.4724   28.8447    5.9352 C   0  0  0  0  0  0  0  0  0  0  0  0
    9.0881   28.1798    4.7663 C   0  0  0  0  0  0  0  0  0  0  0  0
    8.8026   26.8073    4.8618 C   0  0  0  0  0  0  0  0  0  0  0  0
    8.9052   26.1201    6.0773 C   0  0  0  0  0  0  0  0  0  0  0  0
    9.2841   26.6470    9.6364 O   0  0  0  0  0  0  0  0  0  0  0  0
    9.4203   26.1237    8.5456 C   0  0  0  0  0  0  0  0  0  0  0  0
    9.7126   24.8156    8.4324 O   0  0  0  0  0  0  0  0  0  0  0  0
    9.8138   24.4299    7.5845 H   0  0  0  0  0  0  0  0  0  0  0  0
    4.3381   29.6757    3.4275 N   0  0  0  0  0  0  0  0  0  0  0  0
    3.8618   28.8232    3.5524 H   0  0  0  0  0  0  0  0  0  0  0  0
    3.7276   30.8629    3.9162 C   0  0  0  0  0  0  0  0  0  0  0  0
    3.1232   31.7352    2.9923 C   0  0  0  0  0  0  0  0  0  0  0  0
    2.5621   32.9440    3.4059 C   0  0  0  0  0  0  0  0  0  0  0  0
    2.5987   33.3015    4.7484 C   0  0  0  0  0  0  0  0  0  0  0  0
    3.1908   32.4467    5.6794 C   0  0  0  0  0  0  0  0  0  0  0  0
    3.7611   31.2187    5.2890 C   0  0  0  0  0  0  0  0  0  0  0  0
    4.3165   30.3337    6.3309 C   0  0  0  0  0  0  0  0  0  0  0  0
    5.3900   29.4740    6.0472 C   0  0  0  0  0  0  0  0  0  0  0  0
    5.9160   28.6325    7.0302 C   0  0  0  0  0  0  0  0  0  0  0  0
    5.3759   28.6387    8.3142 C   0  0  0  0  0  0  0  0  0  0  0  0
    4.3091   29.4826    8.6148 C   0  0  0  0  0  0  0  0  0  0  0  0
    3.7806   30.3196    7.6289 C   0  0  0  0  0  0  0  0  0  0  0  0
 15 16  2  0
 16 17  1  0
 16  9  1  0
  9 10  2  0
 10 11  1  0
 11 12  2  0
 12  7  1  0
  7  1  1  0
  1  2  2  0
  2  3  1  0
  3  4  2  0
  4  5  1  0
  5 19  1  0
 19 21  1  0
 21 22  2  0
 22 23  1  0
 23 24  2  0
 24 25  1  0
 25 26  2  0
 26 27  1  0
 27 28  2  0
 28 29  1  0
 29 30  2  0
 30 31  1  0
 31 32  2  0
  5  6  2  0
 12 13  1  0
 13 14  2  0
 14  9  1  0
  6  1  1  0
 26 21  1  0
 32 27  1  0
 17 18  1  0
  7  8  1  0
 19 20  1  0
M  END
> <minimizedAffinity>
-10.33853

> <CNNscore>
0.1646266282

> <CNNaffinity>
5.0462813377

> <CNN_VS>
0.8307522535

> <CNNaffinity_variance>
1.8223737478

$$$$
