


 26 32  0  0  0  0  0  0  0  0999 V2000
  -42.4208    1.1459  -15.7328 O   0  0  0  0  0  0  0  0  0  0  0  0
  -41.9365    2.2757  -15.7367 C   0  0  0  0  0  0  0  0  0  0  0  0
  -40.4227    2.4632  -15.7364 C   0  0  0  0  0  0  0  0  0  0  0  0
  -39.8794    3.6879  -16.5165 C   0  0  0  0  0  0  0  0  0  0  0  0
  -38.9500    4.3206  -15.6258 O   0  0  0  0  0  0  0  0  0  0  0  0
  -38.1313    5.3171  -16.2226 C   0  0  0  0  0  0  0  0  0  0  0  0
  -38.8190    6.6305  -16.0683 C   0  0  0  0  0  0  0  0  0  0  0  0
  -39.9742    6.9375  -16.6839 C   0  0  0  0  0  0  0  0  0  0  0  0
  -40.7069    8.2338  -16.4254 C   0  0  0  0  0  0  0  0  0  0  0  0
  -42.1116    8.0054  -16.0688 N   0  0  0  0  0  0  0  0  0  0  0  0
  -42.2810    7.6375  -14.6556 C   0  0  0  0  0  0  0  0  0  0  0  0
  -43.3641    6.5737  -14.6412 C   0  0  0  0  0  0  0  0  0  0  0  0
  -43.1326    5.8277  -15.9616 C   0  0  0  0  0  0  0  0  0  0  0  0
  -44.3202    4.9526  -16.2792 C   0  0  0  0  0  0  0  0  0  0  0  0
  -45.5953    5.3416  -16.6732 C   0  0  0  0  0  0  0  0  0  0  0  0
  -46.5615    4.3532  -16.8654 C   0  0  0  0  0  0  0  0  0  0  0  0
  -46.2417    3.0077  -16.6573 C   0  0  0  0  0  0  0  0  0  0  0  0
  -47.1883    2.0787  -16.8482 F   0  0  0  0  0  0  0  0  0  0  0  0
  -44.9679    2.6124  -16.2611 C   0  0  0  0  0  0  0  0  0  0  0  0
  -44.0165    3.5986  -16.0737 C   0  0  0  0  0  0  0  0  0  0  0  0
  -42.6621    3.4532  -15.7335 N   0  0  0  0  0  0  0  0  0  0  0  0
  -41.9980    4.7630  -15.8195 C   0  0  0  0  0  0  0  0  0  0  0  0
  -41.0174    4.6185  -16.9919 C   0  0  0  0  0  0  0  0  0  0  0  0
  -40.6565    5.9677  -17.6285 C   0  0  0  0  0  0  0  0  0  0  0  0
  -41.9765    6.5771  -18.1267 C   0  0  0  0  0  0  0  0  0  0  0  0
  -42.8041    6.9958  -16.9122 C   0  0  0  0  0  0  0  0  0  0  0  0
  1  2  2  0
  2  3  1  0
  4  3  1  0
  4  5  1  0
  5  6  1  0
  6  7  1  0
  7  8  2  0
  8  9  1  0
  9 10  1  0
 10 11  1  0
 11 12  1  0
 13 12  1  0
 13 14  1  0
 14 15  2  0
 15 16  1  0
 16 17  2  0
 17 18  1  0
 17 19  1  0
 19 20  2  0
 20 21  1  0
 22 21  1  0
 22 23  1  0
 23 24  1  0
 24 25  1  0
 26 25  1  0
 21  2  1  0
 23  4  1  0
 24  8  1  0
 26 10  1  0
 22 13  1  0
 26 13  1  0
 20 14  1  0
M  END
> <minimizedAffinity>
-11.20479

> <CNNscore>
0.9849115014

> <CNNaffinity>
8.1197881699

> <CNN_VS>
7.9972729683

> <CNNaffinity_variance>
0.4440481961

$$$$



 26 32  0  0  0  0  0  0  0  0999 V2000
  -40.9717    1.0823  -15.7057 O   0  0  0  0  0  0  0  0  0  0  0  0
  -41.6302    2.0880  -15.9628 C   0  0  0  0  0  0  0  0  0  0  0  0
  -43.1543    2.0394  -15.9252 C   0  0  0  0  0  0  0  0  0  0  0  0
  -43.8739    3.3292  -15.4538 C   0  0  0  0  0  0  0  0  0  0  0  0
  -44.9063    3.5607  -16.4224 O   0  0  0  0  0  0  0  0  0  0  0  0
  -45.8642    4.5437  -16.0542 C   0  0  0  0  0  0  0  0  0  0  0  0
  -45.3977    5.8592  -16.5771 C   0  0  0  0  0  0  0  0  0  0  0  0
  -44.2968    6.4860  -16.1267 C   0  0  0  0  0  0  0  0  0  0  0  0
  -43.7847    7.7648  -16.7484 C   0  0  0  0  0  0  0  0  0  0  0  0
  -42.3674    7.6649  -17.1139 N   0  0  0  0  0  0  0  0  0  0  0  0
  -42.1635    6.9709  -18.3937 C   0  0  0  0  0  0  0  0  0  0  0  0
  -40.9248    6.1153  -18.1975 C   0  0  0  0  0  0  0  0  0  0  0  0
  -41.0134    5.7135  -16.7196 C   0  0  0  0  0  0  0  0  0  0  0  0
  -39.6964    5.1402  -16.2570 C   0  0  0  0  0  0  0  0  0  0  0  0
  -38.4938    5.8054  -16.0481 C   0  0  0  0  0  0  0  0  0  0  0  0
  -37.3792    5.0581  -15.6652 C   0  0  0  0  0  0  0  0  0  0  0  0
  -37.4833    3.6727  -15.5047 C   0  0  0  0  0  0  0  0  0  0  0  0
  -36.3975    2.9787  -15.1371 F   0  0  0  0  0  0  0  0  0  0  0  0
  -38.6836    3.0011  -15.7141 C   0  0  0  0  0  0  0  0  0  0  0  0
  -39.7831    3.7498  -16.0927 C   0  0  0  0  0  0  0  0  0  0  0  0
  -41.1021    3.3190  -16.3073 N   0  0  0  0  0  0  0  0  0  0  0  0
  -41.9655    4.4908  -16.5209 C   0  0  0  0  0  0  0  0  0  0  0  0
  -42.8919    4.5115  -15.2968 C   0  0  0  0  0  0  0  0  0  0  0  0
  -43.4536    5.9100  -15.0061 C   0  0  0  0  0  0  0  0  0  0  0  0
  -42.2402    6.8193  -14.7555 C   0  0  0  0  0  0  0  0  0  0  0  0
  -41.5093    7.0261  -16.0814 C   0  0  0  0  0  0  0  0  0  0  0  0
  1  2  2  0
  2  3  1  0
  4  3  1  0
  4  5  1  0
  5  6  1  0
  6  7  1  0
  7  8  2  0
  8  9  1  0
  9 10  1  0
 10 11  1  0
 11 12  1  0
 13 12  1  0
 13 14  1  0
 14 15  2  0
 15 16  1  0
 16 17  2  0
 17 18  1  0
 17 19  1  0
 19 20  2  0
 20 21  1  0
 22 21  1  0
 22 23  1  0
 23 24  1  0
 24 25  1  0
 26 25  1  0
 21  2  1  0
 23  4  1  0
 24  8  1  0
 26 10  1  0
 22 13  1  0
 26 13  1  0
 20 14  1  0
M  END
> <minimizedAffinity>
-10.63965

> <CNNscore>
0.8842983842

> <CNNaffinity>
7.4935021400

> <CNN_VS>
6.6264920235

> <CNNaffinity_variance>
0.1759744287

$$$$



 26 32  0  0  0  0  0  0  0  0999 V2000
  -46.3320    6.1100  -17.6378 O   0  0  0  0  0  0  0  0  0  0  0  0
  -45.1567    6.4281  -17.4684 C   0  0  0  0  0  0  0  0  0  0  0  0
  -44.7111    7.8702  -17.6890 C   0  0  0  0  0  0  0  0  0  0  0  0
  -43.5820    8.3922  -16.7638 C   0  0  0  0  0  0  0  0  0  0  0  0
  -42.6386    9.0248  -17.6397 O   0  0  0  0  0  0  0  0  0  0  0  0
  -41.6468    9.8069  -16.9885 C   0  0  0  0  0  0  0  0  0  0  0  0
  -40.4688    8.9317  -16.7277 C   0  0  0  0  0  0  0  0  0  0  0  0
  -40.4915    7.8971  -15.8694 C   0  0  0  0  0  0  0  0  0  0  0  0
  -39.3179    6.9591  -15.7046 C   0  0  0  0  0  0  0  0  0  0  0  0
  -39.7158    5.5550  -15.8546 N   0  0  0  0  0  0  0  0  0  0  0  0
  -39.8313    5.1498  -17.2630 C   0  0  0  0  0  0  0  0  0  0  0  0
  -41.0454    4.2403  -17.3244 C   0  0  0  0  0  0  0  0  0  0  0  0
  -41.9774    4.8366  -16.2617 C   0  0  0  0  0  0  0  0  0  0  0  0
  -43.0907    3.8685  -15.9447 C   0  0  0  0  0  0  0  0  0  0  0  0
  -43.0128    2.6611  -15.2602 C   0  0  0  0  0  0  0  0  0  0  0  0
  -44.1730    1.8971  -15.1269 C   0  0  0  0  0  0  0  0  0  0  0  0
  -45.3771    2.3456  -15.6789 C   0  0  0  0  0  0  0  0  0  0  0  0
  -46.4763    1.5923  -15.5371 F   0  0  0  0  0  0  0  0  0  0  0  0
  -45.4610    3.5521  -16.3666 C   0  0  0  0  0  0  0  0  0  0  0  0
  -44.3064    4.3030  -16.4933 C   0  0  0  0  0  0  0  0  0  0  0  0
  -44.1455    5.5655  -17.0861 N   0  0  0  0  0  0  0  0  0  0  0  0
  -42.7806    6.0505  -16.8293 C   0  0  0  0  0  0  0  0  0  0  0  0
  -42.9725    7.2615  -15.9053 C   0  0  0  0  0  0  0  0  0  0  0  0
  -41.7275    7.5605  -15.0588 C   0  0  0  0  0  0  0  0  0  0  0  0
  -41.4644    6.3013  -14.2179 C   0  0  0  0  0  0  0  0  0  0  0  0
  -40.9729    5.1930  -15.1482 C   0  0  0  0  0  0  0  0  0  0  0  0
  1  2  2  0
  2  3  1  0
  4  3  1  0
  4  5  1  0
  5  6  1  0
  6  7  1  0
  7  8  2  0
  8  9  1  0
  9 10  1  0
 10 11  1  0
 11 12  1  0
 13 12  1  0
 13 14  1  0
 14 15  2  0
 15 16  1  0
 16 17  2  0
 17 18  1  0
 17 19  1  0
 19 20  2  0
 20 21  1  0
 22 21  1  0
 22 23  1  0
 23 24  1  0
 24 25  1  0
 26 25  1  0
 21  2  1  0
 23  4  1  0
 24  8  1  0
 26 10  1  0
 22 13  1  0
 26 13  1  0
 20 14  1  0
M  END
> <minimizedAffinity>
-8.43869

> <CNNscore>
0.8661618233

> <CNNaffinity>
7.6821866035

> <CNN_VS>
6.6540169716

> <CNNaffinity_variance>
0.4242998660

$$$$



 26 32  0  0  0  0  0  0  0  0999 V2000
  -46.0313    5.2416  -16.3606 O   0  0  0  0  0  0  0  0  0  0  0  0
  -44.8061    5.2541  -16.2608 C   0  0  0  0  0  0  0  0  0  0  0  0
  -44.0427    3.9595  -16.0005 C   0  0  0  0  0  0  0  0  0  0  0  0
  -42.6417    3.8418  -16.6537 C   0  0  0  0  0  0  0  0  0  0  0  0
  -41.7742    3.3854  -15.6065 O   0  0  0  0  0  0  0  0  0  0  0  0
  -40.4903    2.9545  -16.0367 C   0  0  0  0  0  0  0  0  0  0  0  0
  -39.5683    4.1241  -15.9761 C   0  0  0  0  0  0  0  0  0  0  0  0
  -39.6861    5.2010  -16.7725 C   0  0  0  0  0  0  0  0  0  0  0  0
  -38.8062    6.4200  -16.6171 C   0  0  0  0  0  0  0  0  0  0  0  0
  -39.5948    7.6523  -16.5080 N   0  0  0  0  0  0  0  0  0  0  0  0
  -40.1184    7.8675  -15.1513 C   0  0  0  0  0  0  0  0  0  0  0  0
  -41.5179    8.4246  -15.3409 C   0  0  0  0  0  0  0  0  0  0  0  0
  -41.9990    7.7219  -16.6171 C   0  0  0  0  0  0  0  0  0  0  0  0
  -43.2382    8.4000  -17.1479 C   0  0  0  0  0  0  0  0  0  0  0  0
  -43.3464    9.6508  -17.7448 C   0  0  0  0  0  0  0  0  0  0  0  0
  -44.6136   10.1017  -18.1167 C   0  0  0  0  0  0  0  0  0  0  0  0
  -45.7395    9.3057  -17.8832 C   0  0  0  0  0  0  0  0  0  0  0  0
  -46.9447    9.7628  -18.2495 F   0  0  0  0  0  0  0  0  0  0  0  0
  -45.6377    8.0538  -17.2846 C   0  0  0  0  0  0  0  0  0  0  0  0
  -44.3779    7.6147  -16.9199 C   0  0  0  0  0  0  0  0  0  0  0  0
  -44.0108    6.3815  -16.3581 N   0  0  0  0  0  0  0  0  0  0  0  0
  -42.5434    6.2911  -16.3052 C   0  0  0  0  0  0  0  0  0  0  0  0
  -42.1930    5.1729  -17.2971 C   0  0  0  0  0  0  0  0  0  0  0  0
  -40.7613    5.2913  -17.8375 C   0  0  0  0  0  0  0  0  0  0  0  0
  -40.6763    6.6554  -18.5402 C   0  0  0  0  0  0  0  0  0  0  0  0
  -40.7192    7.7509  -17.4757 C   0  0  0  0  0  0  0  0  0  0  0  0
  1  2  2  0
  2  3  1  0
  4  3  1  0
  4  5  1  0
  5  6  1  0
  6  7  1  0
  7  8  2  0
  8  9  1  0
  9 10  1  0
 10 11  1  0
 11 12  1  0
 13 12  1  0
 13 14  1  0
 14 15  2  0
 15 16  1  0
 16 17  2  0
 17 18  1  0
 17 19  1  0
 19 20  2  0
 20 21  1  0
 22 21  1  0
 22 23  1  0
 23 24  1  0
 24 25  1  0
 26 25  1  0
 21  2  1  0
 23  4  1  0
 24  8  1  0
 26 10  1  0
 22 13  1  0
 26 13  1  0
 20 14  1  0
M  END
> <minimizedAffinity>
-9.30622

> <CNNscore>
0.8590593934

> <CNNaffinity>
7.8789253235

> <CNN_VS>
6.7684650421

> <CNNaffinity_variance>
0.7748377323

$$$$



 26 32  0  0  0  0  0  0  0  0999 V2000
  -38.3286    3.6326  -16.1573 O   0  0  0  0  0  0  0  0  0  0  0  0
  -39.0729    4.6107  -16.1778 C   0  0  0  0  0  0  0  0  0  0  0  0
  -38.5338    5.9787  -16.5835 C   0  0  0  0  0  0  0  0  0  0  0  0
  -39.5115    6.9053  -17.3509 C   0  0  0  0  0  0  0  0  0  0  0  0
  -39.4179    8.1780  -16.6959 O   0  0  0  0  0  0  0  0  0  0  0  0
  -40.0305    9.2560  -17.3901 C   0  0  0  0  0  0  0  0  0  0  0  0
  -41.4371    9.3716  -16.9108 C   0  0  0  0  0  0  0  0  0  0  0  0
  -42.3761    8.4371  -17.1407 C   0  0  0  0  0  0  0  0  0  0  0  0
  -43.7649    8.5262  -16.5511 C   0  0  0  0  0  0  0  0  0  0  0  0
  -44.1361    7.2978  -15.8401 N   0  0  0  0  0  0  0  0  0  0  0  0
  -43.5729    7.2404  -14.4834 C   0  0  0  0  0  0  0  0  0  0  0  0
  -43.1593    5.7943  -14.2775 C   0  0  0  0  0  0  0  0  0  0  0  0
  -42.7187    5.3582  -15.6808 C   0  0  0  0  0  0  0  0  0  0  0  0
  -42.5918    3.8557  -15.7421 C   0  0  0  0  0  0  0  0  0  0  0  0
  -43.6052    2.9045  -15.7183 C   0  0  0  0  0  0  0  0  0  0  0  0
  -43.2499    1.5550  -15.7343 C   0  0  0  0  0  0  0  0  0  0  0  0
  -41.9021    1.1834  -15.7679 C   0  0  0  0  0  0  0  0  0  0  0  0
  -41.5883   -0.1193  -15.7819 F   0  0  0  0  0  0  0  0  0  0  0  0
  -40.8834    2.1308  -15.7900 C   0  0  0  0  0  0  0  0  0  0  0  0
  -41.2448    3.4658  -15.7746 C   0  0  0  0  0  0  0  0  0  0  0  0
  -40.4156    4.5966  -15.8464 N   0  0  0  0  0  0  0  0  0  0  0  0
  -41.2500    5.8011  -15.9768 C   0  0  0  0  0  0  0  0  0  0  0  0
  -40.9440    6.3277  -17.3860 C   0  0  0  0  0  0  0  0  0  0  0  0
  -42.0795    7.1915  -17.9522 C   0  0  0  0  0  0  0  0  0  0  0  0
  -43.3264    6.2939  -17.9918 C   0  0  0  0  0  0  0  0  0  0  0  0
  -43.7866    6.0428  -16.5564 C   0  0  0  0  0  0  0  0  0  0  0  0
  1  2  2  0
  2  3  1  0
  4  3  1  0
  4  5  1  0
  5  6  1  0
  6  7  1  0
  7  8  2  0
  8  9  1  0
  9 10  1  0
 10 11  1  0
 11 12  1  0
 13 12  1  0
 13 14  1  0
 14 15  2  0
 15 16  1  0
 16 17  2  0
 17 18  1  0
 17 19  1  0
 19 20  2  0
 20 21  1  0
 22 21  1  0
 22 23  1  0
 23 24  1  0
 24 25  1  0
 26 25  1  0
 21  2  1  0
 23  4  1  0
 24  8  1  0
 26 10  1  0
 22 13  1  0
 26 13  1  0
 20 14  1  0
M  END
> <minimizedAffinity>
-9.99561

> <CNNscore>
0.5393498540

> <CNNaffinity>
7.0715022087

> <CNN_VS>
3.8140137196

> <CNNaffinity_variance>
0.0136931576

$$$$



 26 32  0  0  0  0  0  0  0  0999 V2000
  -45.7439    2.7770  -16.2987 O   0  0  0  0  0  0  0  0  0  0  0  0
  -45.2561    3.8817  -16.5283 C   0  0  0  0  0  0  0  0  0  0  0  0
  -46.1569    5.1030  -16.6823 C   0  0  0  0  0  0  0  0  0  0  0  0
  -45.5853    6.4503  -16.1709 C   0  0  0  0  0  0  0  0  0  0  0  0
  -45.8265    7.3884  -17.2289 O   0  0  0  0  0  0  0  0  0  0  0  0
  -45.6221    8.7508  -16.8803 C   0  0  0  0  0  0  0  0  0  0  0  0
  -44.2097    9.1012  -17.2028 C   0  0  0  0  0  0  0  0  0  0  0  0
  -43.1520    8.5776  -16.5587 C   0  0  0  0  0  0  0  0  0  0  0  0
  -41.7285    8.8657  -16.9769 C   0  0  0  0  0  0  0  0  0  0  0  0
  -40.9576    7.6334  -17.1751 N   0  0  0  0  0  0  0  0  0  0  0  0
  -41.2090    7.0165  -18.4856 C   0  0  0  0  0  0  0  0  0  0  0  0
  -41.2397    5.5203  -18.2296 C   0  0  0  0  0  0  0  0  0  0  0  0
  -41.8451    5.4232  -16.8233 C   0  0  0  0  0  0  0  0  0  0  0  0
  -41.6437    4.0356  -16.2656 C   0  0  0  0  0  0  0  0  0  0  0  0
  -40.4602    3.4409  -15.8434 C   0  0  0  0  0  0  0  0  0  0  0  0
  -40.5015    2.1160  -15.4071 C   0  0  0  0  0  0  0  0  0  0  0  0
  -41.7111    1.4139  -15.4053 C   0  0  0  0  0  0  0  0  0  0  0  0
  -41.7228    0.1426  -14.9819 F   0  0  0  0  0  0  0  0  0  0  0  0
  -42.8984    2.0031  -15.8283 C   0  0  0  0  0  0  0  0  0  0  0  0
  -42.8481    3.3166  -16.2584 C   0  0  0  0  0  0  0  0  0  0  0  0
  -43.9055    4.1406  -16.6760 N   0  0  0  0  0  0  0  0  0  0  0  0
  -43.4044    5.5100  -16.8705 C   0  0  0  0  0  0  0  0  0  0  0  0
  -44.0972    6.3303  -15.7732 C   0  0  0  0  0  0  0  0  0  0  0  0
  -43.3206    7.6033  -15.4095 C   0  0  0  0  0  0  0  0  0  0  0  0
  -41.9392    7.1414  -14.9195 C   0  0  0  0  0  0  0  0  0  0  0  0
  -41.1553    6.6072  -16.1176 C   0  0  0  0  0  0  0  0  0  0  0  0
  1  2  2  0
  2  3  1  0
  4  3  1  0
  4  5  1  0
  5  6  1  0
  6  7  1  0
  7  8  2  0
  8  9  1  0
  9 10  1  0
 10 11  1  0
 11 12  1  0
 13 12  1  0
 13 14  1  0
 14 15  2  0
 15 16  1  0
 16 17  2  0
 17 18  1  0
 17 19  1  0
 19 20  2  0
 20 21  1  0
 22 21  1  0
 22 23  1  0
 23 24  1  0
 24 25  1  0
 26 25  1  0
 21  2  1  0
 23  4  1  0
 24  8  1  0
 26 10  1  0
 22 13  1  0
 26 13  1  0
 20 14  1  0
M  END
> <minimizedAffinity>
-7.22887

> <CNNscore>
0.3993886411

> <CNNaffinity>
7.0567741394

> <CNN_VS>
2.8183953762

> <CNNaffinity_variance>
0.2773644030

$$$$



 26 32  0  0  0  0  0  0  0  0999 V2000
  -52.3517    4.9297  -23.0517 O   0  0  0  0  0  0  0  0  0  0  0  0
  -51.8001    6.0002  -23.2987 C   0  0  0  0  0  0  0  0  0  0  0  0
  -51.2341    6.2706  -24.6891 C   0  0  0  0  0  0  0  0  0  0  0  0
  -51.3105    7.7351  -25.1918 C   0  0  0  0  0  0  0  0  0  0  0  0
  -50.0013    8.0287  -25.6991 O   0  0  0  0  0  0  0  0  0  0  0  0
  -49.9056    9.2300  -26.4522 C   0  0  0  0  0  0  0  0  0  0  0  0
  -49.5386   10.3311  -25.5171 C   0  0  0  0  0  0  0  0  0  0  0  0
  -50.3527   10.7783  -24.5450 C   0  0  0  0  0  0  0  0  0  0  0  0
  -49.9151   11.8202  -23.5414 C   0  0  0  0  0  0  0  0  0  0  0  0
  -50.1464   11.3799  -22.1612 N   0  0  0  0  0  0  0  0  0  0  0  0
  -49.0920   10.4791  -21.6733 C   0  0  0  0  0  0  0  0  0  0  0  0
  -49.8092    9.4263  -20.8474 C   0  0  0  0  0  0  0  0  0  0  0  0
  -51.1511    9.2720  -21.5749 C   0  0  0  0  0  0  0  0  0  0  0  0
  -52.1278    8.5153  -20.7085 C   0  0  0  0  0  0  0  0  0  0  0  0
  -52.7586    8.9436  -19.5462 C   0  0  0  0  0  0  0  0  0  0  0  0
  -53.5919    8.0483  -18.8742 C   0  0  0  0  0  0  0  0  0  0  0  0
  -53.7740    6.7523  -19.3672 C   0  0  0  0  0  0  0  0  0  0  0  0
  -54.5790    5.9122  -18.7023 F   0  0  0  0  0  0  0  0  0  0  0  0
  -53.1440    6.3172  -20.5289 C   0  0  0  0  0  0  0  0  0  0  0  0
  -52.3206    7.2115  -21.1887 C   0  0  0  0  0  0  0  0  0  0  0  0
  -51.6256    7.0330  -22.3955 N   0  0  0  0  0  0  0  0  0  0  0  0
  -51.0237    8.3125  -22.8013 C   0  0  0  0  0  0  0  0  0  0  0  0
  -51.7780    8.7015  -24.0807 C   0  0  0  0  0  0  0  0  0  0  0  0
  -51.7453   10.2125  -24.3482 C   0  0  0  0  0  0  0  0  0  0  0  0
  -52.4052   10.8809  -23.1318 C   0  0  0  0  0  0  0  0  0  0  0  0
  -51.4676   10.7372  -21.9337 C   0  0  0  0  0  0  0  0  0  0  0  0
  1  2  2  0
  2  3  1  0
  4  3  1  0
  4  5  1  0
  5  6  1  0
  6  7  1  0
  7  8  2  0
  8  9  1  0
  9 10  1  0
 10 11  1  0
 11 12  1  0
 13 12  1  0
 13 14  1  0
 14 15  2  0
 15 16  1  0
 16 17  2  0
 17 18  1  0
 17 19  1  0
 19 20  2  0
 20 21  1  0
 22 21  1  0
 22 23  1  0
 23 24  1  0
 24 25  1  0
 26 25  1  0
 21  2  1  0
 23  4  1  0
 24  8  1  0
 26 10  1  0
 22 13  1  0
 26 13  1  0
 20 14  1  0
M  END
> <minimizedAffinity>
-6.44872

> <CNNscore>
0.3054619431

> <CNNaffinity>
5.6009616852

> <CNN_VS>
1.7108806372

> <CNNaffinity_variance>
0.0397779159

$$$$



 26 32  0  0  0  0  0  0  0  0999 V2000
  -35.4112   -0.3449  -17.2445 O   0  0  0  0  0  0  0  0  0  0  0  0
  -34.4878   -0.2999  -16.4343 C   0  0  0  0  0  0  0  0  0  0  0  0
  -33.2898   -1.2326  -16.5814 C   0  0  0  0  0  0  0  0  0  0  0  0
  -31.9156   -0.6644  -16.1428 C   0  0  0  0  0  0  0  0  0  0  0  0
  -31.3328   -1.6820  -15.3168 O   0  0  0  0  0  0  0  0  0  0  0  0
  -29.9577   -1.4926  -15.0127 C   0  0  0  0  0  0  0  0  0  0  0  0
  -29.8699   -0.7293  -13.7355 C   0  0  0  0  0  0  0  0  0  0  0  0
  -30.2723    0.5472  -13.6074 C   0  0  0  0  0  0  0  0  0  0  0  0
  -30.2743    1.2633  -12.2764 C   0  0  0  0  0  0  0  0  0  0  0  0
  -31.5789    1.8669  -11.9831 N   0  0  0  0  0  0  0  0  0  0  0  0
  -32.5431    0.8930  -11.4512 C   0  0  0  0  0  0  0  0  0  0  0  0
  -33.8747    1.2543  -12.0847 C   0  0  0  0  0  0  0  0  0  0  0  0
  -33.4686    1.7692  -13.4716 C   0  0  0  0  0  0  0  0  0  0  0  0
  -34.6276    2.4864  -14.1194 C   0  0  0  0  0  0  0  0  0  0  0  0
  -35.1788    3.7159  -13.7774 C   0  0  0  0  0  0  0  0  0  0  0  0
  -36.2915    4.1660  -14.4893 C   0  0  0  0  0  0  0  0  0  0  0  0
  -36.8317    3.3854  -15.5163 C   0  0  0  0  0  0  0  0  0  0  0  0
  -37.9008    3.8407  -16.1837 F   0  0  0  0  0  0  0  0  0  0  0  0
  -36.2856    2.1533  -15.8620 C   0  0  0  0  0  0  0  0  0  0  0  0
  -35.1826    1.7155  -15.1515 C   0  0  0  0  0  0  0  0  0  0  0  0
  -34.4260    0.5485  -15.3438 N   0  0  0  0  0  0  0  0  0  0  0  0
  -33.2429    0.5892  -14.4704 C   0  0  0  0  0  0  0  0  0  0  0  0
  -32.0567    0.7034  -15.4383 C   0  0  0  0  0  0  0  0  0  0  0  0
  -30.8194    1.3325  -14.7831 C   0  0  0  0  0  0  0  0  0  0  0  0
  -31.2443    2.7329  -14.3137 C   0  0  0  0  0  0  0  0  0  0  0  0
  -32.2005    2.5769  -13.1319 C   0  0  0  0  0  0  0  0  0  0  0  0
  1  2  2  0
  2  3  1  0
  4  3  1  0
  4  5  1  0
  5  6  1  0
  6  7  1  0
  7  8  2  0
  8  9  1  0
  9 10  1  0
 10 11  1  0
 11 12  1  0
 13 12  1  0
 13 14  1  0
 14 15  2  0
 15 16  1  0
 16 17  2  0
 17 18  1  0
 17 19  1  0
 19 20  2  0
 20 21  1  0
 22 21  1  0
 22 23  1  0
 23 24  1  0
 24 25  1  0
 26 25  1  0
 21  2  1  0
 23  4  1  0
 24  8  1  0
 26 10  1  0
 22 13  1  0
 26 13  1  0
 20 14  1  0
M  END
> <minimizedAffinity>
-8.08831

> <CNNscore>
0.1968194842

> <CNNaffinity>
5.8383240700

> <CNN_VS>
1.1490958929

> <CNNaffinity_variance>
0.0362316184

$$$$



 26 32  0  0  0  0  0  0  0  0999 V2000
  -47.7981    8.1484  -20.5523 O   0  0  0  0  0  0  0  0  0  0  0  0
  -48.5027    7.2055  -20.9071 C   0  0  0  0  0  0  0  0  0  0  0  0
  -48.1576    5.7834  -20.4767 C   0  0  0  0  0  0  0  0  0  0  0  0
  -49.3538    4.8311  -20.2206 C   0  0  0  0  0  0  0  0  0  0  0  0
  -49.0320    3.6233  -20.9243 O   0  0  0  0  0  0  0  0  0  0  0  0
  -49.8626    2.5117  -20.6183 C   0  0  0  0  0  0  0  0  0  0  0  0
  -50.9945    2.5024  -21.5880 C   0  0  0  0  0  0  0  0  0  0  0  0
  -51.9474    3.4503  -21.6219 C   0  0  0  0  0  0  0  0  0  0  0  0
  -53.0220    3.4770  -22.6844 C   0  0  0  0  0  0  0  0  0  0  0  0
  -53.0991    4.7820  -23.3503 N   0  0  0  0  0  0  0  0  0  0  0  0
  -52.0756    4.9433  -24.3932 C   0  0  0  0  0  0  0  0  0  0  0  0
  -51.6080    6.3834  -24.2822 C   0  0  0  0  0  0  0  0  0  0  0  0
  -51.7130    6.6654  -22.7779 C   0  0  0  0  0  0  0  0  0  0  0  0
  -51.6100    8.1485  -22.5187 C   0  0  0  0  0  0  0  0  0  0  0  0
  -52.5386    9.1403  -22.8127 C   0  0  0  0  0  0  0  0  0  0  0  0
  -52.2074   10.4657  -22.5280 C   0  0  0  0  0  0  0  0  0  0  0  0
  -50.9648   10.7743  -21.9653 C   0  0  0  0  0  0  0  0  0  0  0  0
  -50.6718   12.0552  -21.7024 F   0  0  0  0  0  0  0  0  0  0  0  0
  -50.0306    9.7863  -21.6706 C   0  0  0  0  0  0  0  0  0  0  0  0
  -50.3676    8.4755  -21.9555 C   0  0  0  0  0  0  0  0  0  0  0  0
  -49.6289    7.3085  -21.7033 N   0  0  0  0  0  0  0  0  0  0  0  0
  -50.4587    6.1339  -22.0129 C   0  0  0  0  0  0  0  0  0  0  0  0
  -50.6957    5.4636  -20.6522 C   0  0  0  0  0  0  0  0  0  0  0  0
  -51.9642    4.5996  -20.6335 C   0  0  0  0  0  0  0  0  0  0  0  0
  -53.1336    5.5420  -20.9598 C   0  0  0  0  0  0  0  0  0  0  0  0
  -53.0317    5.9474  -22.4296 C   0  0  0  0  0  0  0  0  0  0  0  0
  1  2  2  0
  2  3  1  0
  4  3  1  0
  4  5  1  0
  5  6  1  0
  6  7  1  0
  7  8  2  0
  8  9  1  0
  9 10  1  0
 10 11  1  0
 11 12  1  0
 13 12  1  0
 13 14  1  0
 14 15  2  0
 15 16  1  0
 16 17  2  0
 17 18  1  0
 17 19  1  0
 19 20  2  0
 20 21  1  0
 22 21  1  0
 22 23  1  0
 23 24  1  0
 24 25  1  0
 26 25  1  0
 21  2  1  0
 23  4  1  0
 24  8  1  0
 26 10  1  0
 22 13  1  0
 26 13  1  0
 20 14  1  0
M  END
> <minimizedAffinity>
-5.55802

> <CNNscore>
0.1865922660

> <CNNaffinity>
4.9608054161

> <CNN_VS>
0.9256479144

> <CNNaffinity_variance>
0.0230519008

$$$$
