


 26 26  0  0  0  0  0  0  0  0999 V2000
   -1.5060   35.7018  101.8886 C   0  0  0  0  0  0  0  0  0  0  0  0
   -0.0897   35.7310  101.7825 C   0  0  0  0  0  0  0  0  0  0  0  0
    0.5088   35.5441  100.5269 C   0  0  0  0  0  0  0  0  0  0  0  0
   -0.2855   35.3390   99.3957 C   0  0  0  0  0  0  0  0  0  0  0  0
   -1.6743   35.2891   99.4592 C   0  0  0  0  0  0  0  0  0  0  0  0
   -2.6191   34.9831   98.0345 Cl  0  0  0  0  0  0  0  0  0  0  0  0
   -2.2833   35.4699  100.7154 C   0  0  0  0  0  0  0  0  0  0  0  0
   -4.0206   35.3767  100.8396 Cl  0  0  0  0  0  0  0  0  0  0  0  0
    0.3952   35.1610   98.1364 N   0  0  0  0  0  0  0  0  0  0  0  0
    0.6914   36.1893   97.5147 O   0  0  0  0  0  0  0  0  0  0  0  0
    0.5830   33.9988   97.7574 O   0  0  0  0  0  0  0  0  0  0  0  0
   -2.1935   35.9334  103.2328 C   0  0  0  0  0  0  0  0  0  0  0  0
   -1.4068   33.5814  103.6298 N   0  0  0  0  0  0  0  0  0  0  0  0
   -2.2759   34.6793  104.1283 C   0  0  0  0  0  0  0  0  0  0  0  0
   -0.4429   33.9099  103.5730 H   0  0  0  0  0  0  0  0  0  0  0  0
   -1.7224   33.2916  102.7041 H   0  0  0  0  0  0  0  0  0  0  0  0
   -3.7346   34.2083  104.2226 C   0  0  0  0  0  0  0  0  0  0  0  0
   -4.6634   34.5510  103.5099 O   0  0  0  0  0  0  0  0  0  0  0  0
   -3.9480   33.3481  105.2452 O   0  0  0  0  0  0  0  0  0  0  0  0
   -3.2346   33.0849  105.7927 H   0  0  0  0  0  0  0  0  0  0  0  0
    0.8372   35.9240  102.9676 C   0  0  0  0  0  0  0  0  0  0  0  0
    2.0445   36.7875  102.6066 C   0  0  0  0  0  0  0  0  0  0  0  0
    1.6656   38.2400  102.5497 C   0  0  0  0  0  0  0  0  0  0  0  0
    1.9262   39.0358  101.6644 O   0  0  0  0  0  0  0  0  0  0  0  0
    0.9429   38.6140  103.6225 O   0  0  0  0  0  0  0  0  0  0  0  0
    0.7491   37.9927  104.2966 H   0  0  0  0  0  0  0  0  0  0  0  0
 14 13  1  0
 14 12  1  0
 12  1  1  0
  1  2  2  0
  2 21  1  0
 21 22  1  0
 22 23  1  0
 23 24  2  0
 23 25  1  0
  2  3  1  0
  3  4  2  0
  4  9  1  0
  9 10  2  0
  9 11  1  0
  4  5  1  0
  5  6  1  0
  5  7  2  0
  7  8  1  0
 14 17  1  0
 17 18  2  0
 17 19  1  0
  7  1  1  0
 13 15  1  0
 13 16  1  0
 25 26  1  0
 19 20  1  0
M  CHG 1   9   1
M  CHG 1  11  -1
M  END
> <minimizedAffinity>
-7.99709

> <CNNscore>
0.8209273815

> <CNNaffinity>
6.2649340630

> <CNN_VS>
5.1430559158

> <CNNaffinity_variance>
0.1988677233

$$$$



 26 26  0  0  0  0  0  0  0  0999 V2000
   -0.7781   34.8782  102.1379 C   0  0  0  0  0  0  0  0  0  0  0  0
   -0.3041   35.9182  101.2941 C   0  0  0  0  0  0  0  0  0  0  0  0
    1.0774   36.1410  101.1886 C   0  0  0  0  0  0  0  0  0  0  0  0
    1.9727   35.3404  101.9029 C   0  0  0  0  0  0  0  0  0  0  0  0
    1.5491   34.3219  102.7505 C   0  0  0  0  0  0  0  0  0  0  0  0
    2.6963   33.3840  103.6561 Cl  0  0  0  0  0  0  0  0  0  0  0  0
    0.1647   34.0948  102.8670 C   0  0  0  0  0  0  0  0  0  0  0  0
   -0.4050   32.8507  103.9487 Cl  0  0  0  0  0  0  0  0  0  0  0  0
    3.3787   35.6201  101.7425 N   0  0  0  0  0  0  0  0  0  0  0  0
    3.7714   36.7304  102.1229 O   0  0  0  0  0  0  0  0  0  0  0  0
    4.0667   34.7505  101.1946 O   0  0  0  0  0  0  0  0  0  0  0  0
   -2.2729   34.5856  102.2526 C   0  0  0  0  0  0  0  0  0  0  0  0
   -1.9903   35.9933  104.3133 N   0  0  0  0  0  0  0  0  0  0  0  0
   -2.9566   35.2411  103.4708 C   0  0  0  0  0  0  0  0  0  0  0  0
   -1.5260   36.7032  103.7468 H   0  0  0  0  0  0  0  0  0  0  0  0
   -1.2942   35.3497  104.6896 H   0  0  0  0  0  0  0  0  0  0  0  0
   -3.6695   34.1649  104.3027 C   0  0  0  0  0  0  0  0  0  0  0  0
   -4.7630   33.6717  104.0813 O   0  0  0  0  0  0  0  0  0  0  0  0
   -2.9690   33.7930  105.3992 O   0  0  0  0  0  0  0  0  0  0  0  0
   -2.1290   34.1718  105.5693 H   0  0  0  0  0  0  0  0  0  0  0  0
   -1.2148   36.8423  100.5080 C   0  0  0  0  0  0  0  0  0  0  0  0
   -1.8044   37.9406  101.3909 C   0  0  0  0  0  0  0  0  0  0  0  0
   -0.7160   38.7469  102.0403 C   0  0  0  0  0  0  0  0  0  0  0  0
   -0.0370   39.6183  101.5259 O   0  0  0  0  0  0  0  0  0  0  0  0
   -0.5541   38.4218  103.3370 O   0  0  0  0  0  0  0  0  0  0  0  0
   -1.0824   37.7499  103.7210 H   0  0  0  0  0  0  0  0  0  0  0  0
 14 13  1  0
 14 12  1  0
 12  1  1  0
  1  2  2  0
  2 21  1  0
 21 22  1  0
 22 23  1  0
 23 24  2  0
 23 25  1  0
  2  3  1  0
  3  4  2  0
  4  9  1  0
  9 10  2  0
  9 11  1  0
  4  5  1  0
  5  6  1  0
  5  7  2  0
  7  8  1  0
 14 17  1  0
 17 18  2  0
 17 19  1  0
  7  1  1  0
 13 15  1  0
 13 16  1  0
 25 26  1  0
 19 20  1  0
M  CHG 1   9   1
M  CHG 1  11  -1
M  END
> <minimizedAffinity>
-7.39179

> <CNNscore>
0.6870043278

> <CNNaffinity>
6.2809333801

> <CNN_VS>
4.3150281906

> <CNNaffinity_variance>
0.2338525504

$$$$



 26 26  0  0  0  0  0  0  0  0999 V2000
   -2.4094   35.3971  100.3306 C   0  0  0  0  0  0  0  0  0  0  0  0
   -3.6691   35.3851   99.6740 C   0  0  0  0  0  0  0  0  0  0  0  0
   -3.7146   35.2486   98.2780 C   0  0  0  0  0  0  0  0  0  0  0  0
   -2.5302   35.1189   97.5479 C   0  0  0  0  0  0  0  0  0  0  0  0
   -1.2767   35.1403   98.1507 C   0  0  0  0  0  0  0  0  0  0  0  0
    0.1704   35.0247   97.1977 Cl  0  0  0  0  0  0  0  0  0  0  0  0
   -1.2211   35.2826   99.5501 C   0  0  0  0  0  0  0  0  0  0  0  0
    0.3342   35.3508  100.3369 Cl  0  0  0  0  0  0  0  0  0  0  0  0
   -2.6507   34.9754   96.1176 N   0  0  0  0  0  0  0  0  0  0  0  0
   -2.5197   33.8327   95.6608 O   0  0  0  0  0  0  0  0  0  0  0  0
   -2.8252   36.0088   95.4609 O   0  0  0  0  0  0  0  0  0  0  0  0
   -2.3222   35.5115  101.8513 C   0  0  0  0  0  0  0  0  0  0  0  0
   -0.4320   35.9081  103.4569 N   0  0  0  0  0  0  0  0  0  0  0  0
   -1.2401   36.4903  102.3535 C   0  0  0  0  0  0  0  0  0  0  0  0
   -0.0007   35.0395  103.1408 H   0  0  0  0  0  0  0  0  0  0  0  0
   -1.0359   35.7167  104.2563 H   0  0  0  0  0  0  0  0  0  0  0  0
   -1.9005   37.8009  102.8058 C   0  0  0  0  0  0  0  0  0  0  0  0
   -2.3955   38.6571  102.0918 O   0  0  0  0  0  0  0  0  0  0  0  0
   -1.8671   37.9750  104.1474 O   0  0  0  0  0  0  0  0  0  0  0  0
   -1.4869   37.3173  104.6959 H   0  0  0  0  0  0  0  0  0  0  0  0
   -4.9937   35.5449  100.3959 C   0  0  0  0  0  0  0  0  0  0  0  0
   -6.1666   35.6041   99.4190 C   0  0  0  0  0  0  0  0  0  0  0  0
   -7.2721   34.6848   99.8541 C   0  0  0  0  0  0  0  0  0  0  0  0
   -7.8746   33.8791   99.1665 O   0  0  0  0  0  0  0  0  0  0  0  0
   -7.5488   34.8157  101.1655 O   0  0  0  0  0  0  0  0  0  0  0  0
   -7.0785   35.4389  101.6836 H   0  0  0  0  0  0  0  0  0  0  0  0
 14 13  1  0
 14 12  1  0
 12  1  1  0
  1  2  2  0
  2 21  1  0
 21 22  1  0
 22 23  1  0
 23 24  2  0
 23 25  1  0
  2  3  1  0
  3  4  2  0
  4  9  1  0
  9 10  2  0
  9 11  1  0
  4  5  1  0
  5  6  1  0
  5  7  2  0
  7  8  1  0
 14 17  1  0
 17 18  2  0
 17 19  1  0
  7  1  1  0
 13 15  1  0
 13 16  1  0
 25 26  1  0
 19 20  1  0
M  CHG 1   9   1
M  CHG 1  11  -1
M  END
> <minimizedAffinity>
-7.99070

> <CNNscore>
0.5431005359

> <CNNaffinity>
5.9140305519

> <CNN_VS>
3.2119131088

> <CNNaffinity_variance>
0.4701097310

$$$$



 26 26  0  0  0  0  0  0  0  0999 V2000
    0.4821   36.7554  102.8246 C   0  0  0  0  0  0  0  0  0  0  0  0
   -0.8597   37.2091  102.9338 C   0  0  0  0  0  0  0  0  0  0  0  0
   -1.1978   38.4784  102.4396 C   0  0  0  0  0  0  0  0  0  0  0  0
   -0.2220   39.2798  101.8411 C   0  0  0  0  0  0  0  0  0  0  0  0
    1.1052   38.8788  101.7277 C   0  0  0  0  0  0  0  0  0  0  0  0
    2.2939   39.9287  101.0199 Cl  0  0  0  0  0  0  0  0  0  0  0  0
    1.4548   37.6094  102.2257 C   0  0  0  0  0  0  0  0  0  0  0  0
    3.1169   37.0881  102.1344 Cl  0  0  0  0  0  0  0  0  0  0  0  0
   -0.6402   40.5696  101.3489 N   0  0  0  0  0  0  0  0  0  0  0  0
    0.2362   41.4379  101.2510 O   0  0  0  0  0  0  0  0  0  0  0  0
   -1.8450   40.7182  101.1122 O   0  0  0  0  0  0  0  0  0  0  0  0
    0.8800   35.3670  103.3220 C   0  0  0  0  0  0  0  0  0  0  0  0
    1.1463   32.9533  102.6808 N   0  0  0  0  0  0  0  0  0  0  0  0
    0.3904   34.2080  102.4286 C   0  0  0  0  0  0  0  0  0  0  0  0
    1.0629   32.6980  103.6648 H   0  0  0  0  0  0  0  0  0  0  0  0
    2.1292   33.0960  102.4487 H   0  0  0  0  0  0  0  0  0  0  0  0
    0.5010   34.6135  100.9516 C   0  0  0  0  0  0  0  0  0  0  0  0
   -0.4138   34.9179  100.2042 O   0  0  0  0  0  0  0  0  0  0  0  0
    1.7712   34.5775  100.4864 O   0  0  0  0  0  0  0  0  0  0  0  0
    2.4739   34.3437  101.0605 H   0  0  0  0  0  0  0  0  0  0  0  0
   -1.9664   36.4067  103.5914 C   0  0  0  0  0  0  0  0  0  0  0  0
   -2.7898   35.6315  102.5643 C   0  0  0  0  0  0  0  0  0  0  0  0
   -3.5496   34.5144  103.2210 C   0  0  0  0  0  0  0  0  0  0  0  0
   -3.0919   33.6061  103.8922 O   0  0  0  0  0  0  0  0  0  0  0  0
   -4.8759   34.6169  103.0122 O   0  0  0  0  0  0  0  0  0  0  0  0
   -5.2157   35.3199  102.4942 H   0  0  0  0  0  0  0  0  0  0  0  0
 14 13  1  0
 14 12  1  0
 12  1  1  0
  1  2  2  0
  2 21  1  0
 21 22  1  0
 22 23  1  0
 23 24  2  0
 23 25  1  0
  2  3  1  0
  3  4  2  0
  4  9  1  0
  9 10  2  0
  9 11  1  0
  4  5  1  0
  5  6  1  0
  5  7  2  0
  7  8  1  0
 14 17  1  0
 17 18  2  0
 17 19  1  0
  7  1  1  0
 13 15  1  0
 13 16  1  0
 25 26  1  0
 19 20  1  0
M  CHG 1   9   1
M  CHG 1  11  -1
M  END
> <minimizedAffinity>
-6.92259

> <CNNscore>
0.3817317486

> <CNNaffinity>
6.0302395821

> <CNN_VS>
2.3019340038

> <CNNaffinity_variance>
0.2268779278

$$$$



 26 26  0  0  0  0  0  0  0  0999 V2000
   -0.0221   36.3782  102.3493 C   0  0  0  0  0  0  0  0  0  0  0  0
   -1.4261   36.5655  102.2409 C   0  0  0  0  0  0  0  0  0  0  0  0
   -1.9274   37.8411  101.9393 C   0  0  0  0  0  0  0  0  0  0  0  0
   -1.0495   38.9102  101.7418 C   0  0  0  0  0  0  0  0  0  0  0  0
    0.3302   38.7720  101.8531 C   0  0  0  0  0  0  0  0  0  0  0  0
    1.3803   40.1398  101.6471 Cl  0  0  0  0  0  0  0  0  0  0  0  0
    0.8420   37.4972  102.1610 C   0  0  0  0  0  0  0  0  0  0  0  0
    2.5645   37.2940  102.3451 Cl  0  0  0  0  0  0  0  0  0  0  0  0
   -1.6325   40.1918  101.4281 N   0  0  0  0  0  0  0  0  0  0  0  0
   -2.8673   40.2387  101.3595 O   0  0  0  0  0  0  0  0  0  0  0  0
   -0.8527   41.1256  101.2052 O   0  0  0  0  0  0  0  0  0  0  0  0
    0.5613   34.9976  102.6442 C   0  0  0  0  0  0  0  0  0  0  0  0
    2.3513   34.3373  101.0108 N   0  0  0  0  0  0  0  0  0  0  0  0
    2.0746   34.8756  102.3684 C   0  0  0  0  0  0  0  0  0  0  0  0
    1.9139   34.9373  100.3115 H   0  0  0  0  0  0  0  0  0  0  0  0
    1.9711   33.3939  100.9352 H   0  0  0  0  0  0  0  0  0  0  0  0
    2.7240   33.9879  103.4402 C   0  0  0  0  0  0  0  0  0  0  0  0
    3.1141   32.8402  103.3041 O   0  0  0  0  0  0  0  0  0  0  0  0
    2.8133   34.5942  104.6468 O   0  0  0  0  0  0  0  0  0  0  0  0
    2.5136   35.4758  104.7514 H   0  0  0  0  0  0  0  0  0  0  0  0
   -2.4404   35.4600  102.4653 C   0  0  0  0  0  0  0  0  0  0  0  0
   -2.4124   34.9507  103.9052 C   0  0  0  0  0  0  0  0  0  0  0  0
   -3.6815   34.2193  104.2386 C   0  0  0  0  0  0  0  0  0  0  0  0
   -4.7544   34.3062  103.6674 O   0  0  0  0  0  0  0  0  0  0  0  0
   -3.5210   33.3823  105.2811 O   0  0  0  0  0  0  0  0  0  0  0  0
   -2.6910   33.3245  105.7121 H   0  0  0  0  0  0  0  0  0  0  0  0
 14 13  1  0
 14 12  1  0
 12  1  1  0
  1  2  2  0
  2 21  1  0
 21 22  1  0
 22 23  1  0
 23 24  2  0
 23 25  1  0
  2  3  1  0
  3  4  2  0
  4  9  1  0
  9 10  2  0
  9 11  1  0
  4  5  1  0
  5  6  1  0
  5  7  2  0
  7  8  1  0
 14 17  1  0
 17 18  2  0
 17 19  1  0
  7  1  1  0
 13 15  1  0
 13 16  1  0
 25 26  1  0
 19 20  1  0
M  CHG 1   9   1
M  CHG 1  11  -1
M  END
> <minimizedAffinity>
-7.71630

> <CNNscore>
0.3622930050

> <CNNaffinity>
6.0442748070

> <CNN_VS>
2.1897985935

> <CNNaffinity_variance>
0.3378476202

$$$$



 26 26  0  0  0  0  0  0  0  0999 V2000
   -3.5563   35.2142   99.1909 C   0  0  0  0  0  0  0  0  0  0  0  0
   -2.6501   35.8561  100.0769 C   0  0  0  0  0  0  0  0  0  0  0  0
   -1.2768   35.8351   99.7885 C   0  0  0  0  0  0  0  0  0  0  0  0
   -0.8125   35.1942   98.6369 C   0  0  0  0  0  0  0  0  0  0  0  0
   -1.6647   34.5420   97.7518 C   0  0  0  0  0  0  0  0  0  0  0  0
   -1.0375   33.7168   96.3584 Cl  0  0  0  0  0  0  0  0  0  0  0  0
   -3.0435   34.5529   98.0359 C   0  0  0  0  0  0  0  0  0  0  0  0
   -4.1384   33.7138   96.9684 Cl  0  0  0  0  0  0  0  0  0  0  0  0
    0.6100   35.2172   98.3986 N   0  0  0  0  0  0  0  0  0  0  0  0
    1.3358   34.8512   99.3318 O   0  0  0  0  0  0  0  0  0  0  0  0
    0.9903   35.6460   97.3026 O   0  0  0  0  0  0  0  0  0  0  0  0
   -5.0604   35.2441   99.4552 C   0  0  0  0  0  0  0  0  0  0  0  0
   -5.8833   36.8319   97.6917 N   0  0  0  0  0  0  0  0  0  0  0  0
   -5.9238   35.4322   98.1901 C   0  0  0  0  0  0  0  0  0  0  0  0
   -4.9171   37.0968   97.5003 H   0  0  0  0  0  0  0  0  0  0  0  0
   -6.2734   37.4558   98.3981 H   0  0  0  0  0  0  0  0  0  0  0  0
   -7.3703   35.0095   98.4858 C   0  0  0  0  0  0  0  0  0  0  0  0
   -7.7524   33.9121   98.8568 O   0  0  0  0  0  0  0  0  0  0  0  0
   -8.2672   35.9975   98.2601 O   0  0  0  0  0  0  0  0  0  0  0  0
   -7.9737   36.8405   97.9751 H   0  0  0  0  0  0  0  0  0  0  0  0
   -3.0767   36.5500  101.3566 C   0  0  0  0  0  0  0  0  0  0  0  0
   -2.0305   37.5577  101.8292 C   0  0  0  0  0  0  0  0  0  0  0  0
   -1.6768   37.3254  103.2706 C   0  0  0  0  0  0  0  0  0  0  0  0
   -1.9591   38.0323  104.2222 O   0  0  0  0  0  0  0  0  0  0  0  0
   -0.9924   36.1786  103.4424 O   0  0  0  0  0  0  0  0  0  0  0  0
   -0.7813   35.6436  102.7026 H   0  0  0  0  0  0  0  0  0  0  0  0
 14 13  1  0
 14 12  1  0
 12  1  1  0
  1  2  2  0
  2 21  1  0
 21 22  1  0
 22 23  1  0
 23 24  2  0
 23 25  1  0
  2  3  1  0
  3  4  2  0
  4  9  1  0
  9 10  2  0
  9 11  1  0
  4  5  1  0
  5  6  1  0
  5  7  2  0
  7  8  1  0
 14 17  1  0
 17 18  2  0
 17 19  1  0
  7  1  1  0
 13 15  1  0
 13 16  1  0
 25 26  1  0
 19 20  1  0
M  CHG 1   9   1
M  CHG 1  11  -1
M  END
> <minimizedAffinity>
-7.87091

> <CNNscore>
0.3503200114

> <CNNaffinity>
5.3436374664

> <CNN_VS>
1.8719831705

> <CNNaffinity_variance>
0.0106003247

$$$$



 26 26  0  0  0  0  0  0  0  0999 V2000
   -2.9429   35.7836   99.9760 C   0  0  0  0  0  0  0  0  0  0  0  0
   -3.5548   35.5845  101.2425 C   0  0  0  0  0  0  0  0  0  0  0  0
   -4.9297   35.3104  101.3053 C   0  0  0  0  0  0  0  0  0  0  0  0
   -5.6821   35.2283  100.1307 C   0  0  0  0  0  0  0  0  0  0  0  0
   -5.1243   35.4311   98.8725 C   0  0  0  0  0  0  0  0  0  0  0  0
   -6.1082   35.3674   97.4429 Cl  0  0  0  0  0  0  0  0  0  0  0  0
   -3.7468   35.7122   98.8001 C   0  0  0  0  0  0  0  0  0  0  0  0
   -3.0201   36.0087   97.2424 Cl  0  0  0  0  0  0  0  0  0  0  0  0
   -7.0881   34.9367  100.2682 N   0  0  0  0  0  0  0  0  0  0  0  0
   -7.7207   35.6216  101.0820 O   0  0  0  0  0  0  0  0  0  0  0  0
   -7.5359   33.9965   99.6008 O   0  0  0  0  0  0  0  0  0  0  0  0
   -1.4431   36.0519   99.8667 C   0  0  0  0  0  0  0  0  0  0  0  0
    0.2083   34.3690  100.7323 N   0  0  0  0  0  0  0  0  0  0  0  0
   -0.5949   34.8002   99.5583 C   0  0  0  0  0  0  0  0  0  0  0  0
   -0.4127   34.1872  101.5209 H   0  0  0  0  0  0  0  0  0  0  0  0
    0.8681   35.1057  100.9819 H   0  0  0  0  0  0  0  0  0  0  0  0
    0.3191   35.0802   98.3564 C   0  0  0  0  0  0  0  0  0  0  0  0
    0.6359   36.1722   97.9148 O   0  0  0  0  0  0  0  0  0  0  0  0
    0.7586   33.9523   97.7515 O   0  0  0  0  0  0  0  0  0  0  0  0
    0.5153   33.1134   98.0907 H   0  0  0  0  0  0  0  0  0  0  0  0
   -2.8089   35.6818  102.5599 C   0  0  0  0  0  0  0  0  0  0  0  0
   -2.5067   34.3021  103.1418 C   0  0  0  0  0  0  0  0  0  0  0  0
   -2.9313   34.2238  104.5807 C   0  0  0  0  0  0  0  0  0  0  0  0
   -4.0697   34.1640  105.0113 O   0  0  0  0  0  0  0  0  0  0  0  0
   -1.8757   34.2004  105.4164 O   0  0  0  0  0  0  0  0  0  0  0  0
   -1.0051   34.2469  105.0730 H   0  0  0  0  0  0  0  0  0  0  0  0
 14 13  1  0
 14 12  1  0
 12  1  1  0
  1  2  2  0
  2 21  1  0
 21 22  1  0
 22 23  1  0
 23 24  2  0
 23 25  1  0
  2  3  1  0
  3  4  2  0
  4  9  1  0
  9 10  2  0
  9 11  1  0
  4  5  1  0
  5  6  1  0
  5  7  2  0
  7  8  1  0
 14 17  1  0
 17 18  2  0
 17 19  1  0
  7  1  1  0
 13 15  1  0
 13 16  1  0
 25 26  1  0
 19 20  1  0
M  CHG 1   9   1
M  CHG 1  11  -1
M  END
> <minimizedAffinity>
-8.66976

> <CNNscore>
0.3433273137

> <CNNaffinity>
5.2353968620

> <CNN_VS>
1.7974547148

> <CNNaffinity_variance>
0.1602157503

$$$$



 26 26  0  0  0  0  0  0  0  0999 V2000
   -4.0913   35.9176   97.2587 C   0  0  0  0  0  0  0  0  0  0  0  0
   -3.3657   35.7176   98.4635 C   0  0  0  0  0  0  0  0  0  0  0  0
   -2.0586   35.2104   98.4017 C   0  0  0  0  0  0  0  0  0  0  0  0
   -1.4799   34.9140   97.1649 C   0  0  0  0  0  0  0  0  0  0  0  0
   -2.1613   35.0817   95.9638 C   0  0  0  0  0  0  0  0  0  0  0  0
   -1.4190   34.6538   94.4531 Cl  0  0  0  0  0  0  0  0  0  0  0  0
   -3.4750   35.5846   96.0163 C   0  0  0  0  0  0  0  0  0  0  0  0
   -4.3735   35.7732   94.5331 Cl  0  0  0  0  0  0  0  0  0  0  0  0
   -0.1311   34.4026   97.1745 N   0  0  0  0  0  0  0  0  0  0  0  0
   -0.0034   33.1729   97.2306 O   0  0  0  0  0  0  0  0  0  0  0  0
    0.7857   35.2328   97.1760 O   0  0  0  0  0  0  0  0  0  0  0  0
   -5.5040   36.4980   97.2849 C   0  0  0  0  0  0  0  0  0  0  0  0
   -7.4639   36.0942   95.7671 N   0  0  0  0  0  0  0  0  0  0  0  0
   -6.6031   35.5146   96.8312 C   0  0  0  0  0  0  0  0  0  0  0  0
   -6.8854   36.3659   94.9721 H   0  0  0  0  0  0  0  0  0  0  0  0
   -7.9485   36.9147   96.1311 H   0  0  0  0  0  0  0  0  0  0  0  0
   -7.4525   35.0972   98.0406 C   0  0  0  0  0  0  0  0  0  0  0  0
   -7.5667   33.9747   98.5043 O   0  0  0  0  0  0  0  0  0  0  0  0
   -8.1455   36.1262   98.5812 O   0  0  0  0  0  0  0  0  0  0  0  0
   -8.0579   36.9884   98.2250 H   0  0  0  0  0  0  0  0  0  0  0  0
   -3.9352   35.9930   99.8422 C   0  0  0  0  0  0  0  0  0  0  0  0
   -5.0134   34.9795  100.2215 C   0  0  0  0  0  0  0  0  0  0  0  0
   -5.7896   35.4473  101.4195 C   0  0  0  0  0  0  0  0  0  0  0  0
   -6.9075   35.9323  101.4303 O   0  0  0  0  0  0  0  0  0  0  0  0
   -5.1111   35.2530  102.5663 O   0  0  0  0  0  0  0  0  0  0  0  0
   -4.2521   34.8792  102.5448 H   0  0  0  0  0  0  0  0  0  0  0  0
 14 13  1  0
 14 12  1  0
 12  1  1  0
  1  2  2  0
  2 21  1  0
 21 22  1  0
 22 23  1  0
 23 24  2  0
 23 25  1  0
  2  3  1  0
  3  4  2  0
  4  9  1  0
  9 10  2  0
  9 11  1  0
  4  5  1  0
  5  6  1  0
  5  7  2  0
  7  8  1  0
 14 17  1  0
 17 18  2  0
 17 19  1  0
  7  1  1  0
 13 15  1  0
 13 16  1  0
 25 26  1  0
 19 20  1  0
M  CHG 1   9   1
M  CHG 1  11  -1
M  END
> <minimizedAffinity>
-6.87416

> <CNNscore>
0.3280701041

> <CNNaffinity>
5.2335624695

> <CNN_VS>
1.7169753313

> <CNNaffinity_variance>
0.0495108627

$$$$



 26 26  0  0  0  0  0  0  0  0999 V2000
   -0.5801   34.6640  102.1044 C   0  0  0  0  0  0  0  0  0  0  0  0
   -0.0623   35.5833  101.1531 C   0  0  0  0  0  0  0  0  0  0  0  0
    1.3263   35.7626  101.0568 C   0  0  0  0  0  0  0  0  0  0  0  0
    2.1856   35.0364  101.8855 C   0  0  0  0  0  0  0  0  0  0  0  0
    1.7185   34.1378  102.8392 C   0  0  0  0  0  0  0  0  0  0  0  0
    2.8221   33.2932  103.8808 Cl  0  0  0  0  0  0  0  0  0  0  0  0
    0.3268   33.9555  102.9470 C   0  0  0  0  0  0  0  0  0  0  0  0
   -0.2970   32.8646  104.1566 Cl  0  0  0  0  0  0  0  0  0  0  0  0
    3.6012   35.2649  101.7284 N   0  0  0  0  0  0  0  0  0  0  0  0
    3.9984   36.4253  101.8935 O   0  0  0  0  0  0  0  0  0  0  0  0
    4.2941   34.2964  101.3940 O   0  0  0  0  0  0  0  0  0  0  0  0
   -2.0837   34.4189  102.2155 C   0  0  0  0  0  0  0  0  0  0  0  0
   -1.8140   36.0424  104.1128 N   0  0  0  0  0  0  0  0  0  0  0  0
   -2.7832   35.2497  103.3117 C   0  0  0  0  0  0  0  0  0  0  0  0
   -1.2817   36.6542  103.4941 H   0  0  0  0  0  0  0  0  0  0  0  0
   -1.1764   35.4108  104.5974 H   0  0  0  0  0  0  0  0  0  0  0  0
   -3.5979   34.3194  104.2224 C   0  0  0  0  0  0  0  0  0  0  0  0
   -4.7533   33.9629  104.0612 O   0  0  0  0  0  0  0  0  0  0  0  0
   -2.9115   33.9151  105.3162 O   0  0  0  0  0  0  0  0  0  0  0  0
   -2.0240   34.1889  105.4401 H   0  0  0  0  0  0  0  0  0  0  0  0
   -0.9324   36.4236  100.2378 C   0  0  0  0  0  0  0  0  0  0  0  0
   -0.6716   36.1109   98.7655 C   0  0  0  0  0  0  0  0  0  0  0  0
   -1.3153   34.8118   98.3724 C   0  0  0  0  0  0  0  0  0  0  0  0
   -2.5038   34.5974   98.2099 O   0  0  0  0  0  0  0  0  0  0  0  0
   -0.4059   33.8380   98.1777 O   0  0  0  0  0  0  0  0  0  0  0  0
    0.5052   34.0154   98.3059 H   0  0  0  0  0  0  0  0  0  0  0  0
 14 13  1  0
 14 12  1  0
 12  1  1  0
  1  2  2  0
  2 21  1  0
 21 22  1  0
 22 23  1  0
 23 24  2  0
 23 25  1  0
  2  3  1  0
  3  4  2  0
  4  9  1  0
  9 10  2  0
  9 11  1  0
  4  5  1  0
  5  6  1  0
  5  7  2  0
  7  8  1  0
 14 17  1  0
 17 18  2  0
 17 19  1  0
  7  1  1  0
 13 15  1  0
 13 16  1  0
 25 26  1  0
 19 20  1  0
M  CHG 1   9   1
M  CHG 1  11  -1
M  END
> <minimizedAffinity>
-6.54364

> <CNNscore>
0.2654842734

> <CNNaffinity>
5.5888137817

> <CNN_VS>
1.4837421179

> <CNNaffinity_variance>
0.2313222140

$$$$
