


 15 15  0  0  0  0  0  0  0  0999 V2000
   -1.5627    5.8937   16.6360 C   0  0  0  0  0  0  0  0  0  0  0  0
   -3.0603    5.5715   16.8641 C   0  0  0  0  0  0  0  0  0  0  0  0
   -3.3777    4.2956   16.2795 O   0  0  0  0  0  0  0  0  0  0  0  0
   -3.9531    6.6378   16.2116 C   0  0  0  0  0  0  0  0  0  0  0  0
   -3.7338    6.7785   14.7524 N   0  0  0  0  0  0  0  0  0  0  0  0
   -2.4019    6.3333   14.3521 N   0  0  0  0  0  0  0  0  0  0  0  0
   -1.3947    6.7511   15.3558 C   0  0  0  0  0  0  0  0  0  0  0  0
   -3.2112    4.3271   15.3244 H   0  0  0  0  0  0  0  0  0  0  0  0
   -3.8434    7.7597   14.4963 H   0  0  0  0  0  0  0  0  0  0  0  0
   -2.1672    6.7449   13.4489 H   0  0  0  0  0  0  0  0  0  0  0  0
    0.0415    6.6397   14.8016 C   0  0  0  0  0  0  0  0  0  0  0  0
    0.9057    5.9420   15.6952 O   0  0  0  0  0  0  0  0  0  0  0  0
    0.9586    6.4232   16.5357 H   0  0  0  0  0  0  0  0  0  0  0  0
   -0.7321    5.8380   18.8662 C   0  0  0  0  0  0  0  0  0  0  0  0
   -1.0312    6.6550   17.7394 O   0  0  0  0  0  0  0  0  0  0  0  0
 14 15  1  0
  1 15  1  0
  1  2  1  0
  2  3  1  0
  2  4  1  0
  4  5  1  0
  5  6  1  0
  6  7  1  0
  7 11  1  0
 11 12  1  0
  7  1  1  0
  3  8  1  0
  5  9  1  0
  6 10  1  0
 12 13  1  0
M  END
> <minimizedAffinity>
-4.91108

> <CNNscore>
0.6345505118

> <CNNaffinity>
3.8052310944

> <CNN_VS>
2.4146113396

> <CNNaffinity_variance>
0.0555977784

$$$$



 15 15  0  0  0  0  0  0  0  0999 V2000
   -1.5245   10.4559   10.2907 C   0  0  0  0  0  0  0  0  0  0  0  0
   -1.9452    9.1265   10.9645 C   0  0  0  0  0  0  0  0  0  0  0  0
   -1.4282    9.0766   12.3065 O   0  0  0  0  0  0  0  0  0  0  0  0
   -1.3912    7.9222   10.1881 C   0  0  0  0  0  0  0  0  0  0  0  0
    0.0863    7.9260   10.0691 N   0  0  0  0  0  0  0  0  0  0  0  0
    0.6430    9.2708   10.1872 N   0  0  0  0  0  0  0  0  0  0  0  0
   -0.2181   10.2496    9.4825 C   0  0  0  0  0  0  0  0  0  0  0  0
   -0.4594    9.1165   12.2815 H   0  0  0  0  0  0  0  0  0  0  0  0
    0.3442    7.5418    9.1601 H   0  0  0  0  0  0  0  0  0  0  0  0
    1.5759    9.2858    9.7750 H   0  0  0  0  0  0  0  0  0  0  0  0
    0.5104   11.5918    9.2593 C   0  0  0  0  0  0  0  0  0  0  0  0
    0.5479   12.3824   10.4450 O   0  0  0  0  0  0  0  0  0  0  0  0
   -0.3577   12.5899   10.7241 H   0  0  0  0  0  0  0  0  0  0  0  0
   -3.1319    9.8244    8.6523 C   0  0  0  0  0  0  0  0  0  0  0  0
   -2.5383   10.9026    9.3675 O   0  0  0  0  0  0  0  0  0  0  0  0
 14 15  1  0
  1 15  1  0
  1  2  1  0
  2  3  1  0
  2  4  1  0
  4  5  1  0
  5  6  1  0
  6  7  1  0
  7 11  1  0
 11 12  1  0
  7  1  1  0
  3  8  1  0
  5  9  1  0
  6 10  1  0
 12 13  1  0
M  END
> <minimizedAffinity>
-6.15727

> <CNNscore>
0.4957390130

> <CNNaffinity>
4.6863903999

> <CNN_VS>
2.3232264519

> <CNNaffinity_variance>
0.0388741419

$$$$



 15 15  0  0  0  0  0  0  0  0999 V2000
   -1.0388    9.4816   10.3372 C   0  0  0  0  0  0  0  0  0  0  0  0
   -2.1658    8.5114    9.9048 C   0  0  0  0  0  0  0  0  0  0  0  0
   -1.6262    7.4914    9.0452 O   0  0  0  0  0  0  0  0  0  0  0  0
   -3.2647    9.2602    9.1356 C   0  0  0  0  0  0  0  0  0  0  0  0
   -2.7685    9.9528    7.9226 N   0  0  0  0  0  0  0  0  0  0  0  0
   -1.3437   10.2607    8.0106 N   0  0  0  0  0  0  0  0  0  0  0  0
   -0.9945   10.7012    9.3818 C   0  0  0  0  0  0  0  0  0  0  0  0
   -1.2519    7.9030    8.2505 H   0  0  0  0  0  0  0  0  0  0  0  0
   -3.2866   10.8236    7.8058 H   0  0  0  0  0  0  0  0  0  0  0  0
   -1.1194   11.0056    7.3509 H   0  0  0  0  0  0  0  0  0  0  0  0
    0.3879   11.3862    9.4251 C   0  0  0  0  0  0  0  0  0  0  0  0
    0.4761   12.3443   10.4770 O   0  0  0  0  0  0  0  0  0  0  0  0
   -0.1851   13.0401   10.3370 H   0  0  0  0  0  0  0  0  0  0  0  0
   -1.4788    8.9365   12.6123 C   0  0  0  0  0  0  0  0  0  0  0  0
   -1.2802    9.9827   11.6677 O   0  0  0  0  0  0  0  0  0  0  0  0
 14 15  1  0
  1 15  1  0
  1  2  1  0
  2  3  1  0
  2  4  1  0
  4  5  1  0
  5  6  1  0
  6  7  1  0
  7 11  1  0
 11 12  1  0
  7  1  1  0
  3  8  1  0
  5  9  1  0
  6 10  1  0
 12 13  1  0
M  END
> <minimizedAffinity>
-6.05074

> <CNNscore>
0.4418444932

> <CNNaffinity>
4.2918972969

> <CNN_VS>
1.8963512182

> <CNNaffinity_variance>
0.2057788819

$$$$



 15 15  0  0  0  0  0  0  0  0999 V2000
   -2.3431    5.2594   16.4266 C   0  0  0  0  0  0  0  0  0  0  0  0
   -1.1110    6.1619   16.6833 C   0  0  0  0  0  0  0  0  0  0  0  0
   -1.5333    7.4059   17.2705 O   0  0  0  0  0  0  0  0  0  0  0  0
   -0.3786    6.4718   15.3690 C   0  0  0  0  0  0  0  0  0  0  0  0
   -1.2337    7.1428   14.3610 N   0  0  0  0  0  0  0  0  0  0  0  0
   -2.6518    6.8662   14.5729 N   0  0  0  0  0  0  0  0  0  0  0  0
   -2.8478    5.4531   14.9740 C   0  0  0  0  0  0  0  0  0  0  0  0
   -2.1303    7.8656   16.6596 H   0  0  0  0  0  0  0  0  0  0  0  0
   -0.9691    6.8126   13.4329 H   0  0  0  0  0  0  0  0  0  0  0  0
   -3.1618    7.0439   13.7076 H   0  0  0  0  0  0  0  0  0  0  0  0
   -4.3240    5.0230   14.8408 C   0  0  0  0  0  0  0  0  0  0  0  0
   -4.4748    3.6066   14.9013 O   0  0  0  0  0  0  0  0  0  0  0  0
   -3.9892    3.1981   14.1677 H   0  0  0  0  0  0  0  0  0  0  0  0
   -1.4122    3.5949   17.8512 C   0  0  0  0  0  0  0  0  0  0  0  0
   -1.9972    3.8682   16.5825 O   0  0  0  0  0  0  0  0  0  0  0  0
 14 15  1  0
  1 15  1  0
  1  2  1  0
  2  3  1  0
  2  4  1  0
  4  5  1  0
  5  6  1  0
  6  7  1  0
  7 11  1  0
 11 12  1  0
  7  1  1  0
  3  8  1  0
  5  9  1  0
  6 10  1  0
 12 13  1  0
M  END
> <minimizedAffinity>
-4.56747

> <CNNscore>
0.4224105477

> <CNNaffinity>
3.2712419033

> <CNN_VS>
1.3818070889

> <CNNaffinity_variance>
0.3507728875

$$$$



 15 15  0  0  0  0  0  0  0  0999 V2000
   -2.1491    5.5785   15.2807 C   0  0  0  0  0  0  0  0  0  0  0  0
   -0.9381    6.1775   14.5236 C   0  0  0  0  0  0  0  0  0  0  0  0
    0.0949    6.5309   15.4609 O   0  0  0  0  0  0  0  0  0  0  0  0
   -1.3471    7.4431   13.7550 C   0  0  0  0  0  0  0  0  0  0  0  0
   -1.9126    8.5035   14.6228 N   0  0  0  0  0  0  0  0  0  0  0  0
   -2.4778    7.9608   15.8550 N   0  0  0  0  0  0  0  0  0  0  0  0
   -3.1877    6.6891   15.5811 C   0  0  0  0  0  0  0  0  0  0  0  0
   -0.2433    7.1981   16.0784 H   0  0  0  0  0  0  0  0  0  0  0  0
   -2.6477    8.9908   14.1104 H   0  0  0  0  0  0  0  0  0  0  0  0
   -3.1348    8.6345   16.2487 H   0  0  0  0  0  0  0  0  0  0  0  0
   -4.1044    6.2844   16.7549 C   0  0  0  0  0  0  0  0  0  0  0  0
   -5.1130    7.2603   17.0054 O   0  0  0  0  0  0  0  0  0  0  0  0
   -4.6956    8.1028   17.2440 H   0  0  0  0  0  0  0  0  0  0  0  0
   -4.1496    4.3480   14.8925 C   0  0  0  0  0  0  0  0  0  0  0  0
   -2.8068    4.5765   14.4788 O   0  0  0  0  0  0  0  0  0  0  0  0
 14 15  1  0
  1 15  1  0
  1  2  1  0
  2  3  1  0
  2  4  1  0
  4  5  1  0
  5  6  1  0
  6  7  1  0
  7 11  1  0
 11 12  1  0
  7  1  1  0
  3  8  1  0
  5  9  1  0
  6 10  1  0
 12 13  1  0
M  END
> <minimizedAffinity>
-4.82193

> <CNNscore>
0.3870777786

> <CNNaffinity>
3.0927517414

> <CNN_VS>
1.1971354485

> <CNNaffinity_variance>
0.6212480664

$$$$



 15 15  0  0  0  0  0  0  0  0999 V2000
   -1.4846    9.9240    8.9171 C   0  0  0  0  0  0  0  0  0  0  0  0
   -1.3418   11.1450    7.9753 C   0  0  0  0  0  0  0  0  0  0  0  0
   -0.6750   10.7490    6.7633 O   0  0  0  0  0  0  0  0  0  0  0  0
   -0.5142   12.2543    8.6421 C   0  0  0  0  0  0  0  0  0  0  0  0
    0.8474   11.8194    9.0349 N   0  0  0  0  0  0  0  0  0  0  0  0
    0.9253   10.3753    9.2368 N   0  0  0  0  0  0  0  0  0  0  0  0
   -0.2976    9.8818    9.9130 C   0  0  0  0  0  0  0  0  0  0  0  0
    0.2117   10.4180    6.9754 H   0  0  0  0  0  0  0  0  0  0  0  0
    1.1043   12.2874    9.9040 H   0  0  0  0  0  0  0  0  0  0  0  0
    1.7385   10.1599    9.8136 H   0  0  0  0  0  0  0  0  0  0  0  0
   -0.1012    8.4588   10.4775 C   0  0  0  0  0  0  0  0  0  0  0  0
    0.3084    7.5369    9.4703 O   0  0  0  0  0  0  0  0  0  0  0  0
   -0.3756    7.4821    8.7847 H   0  0  0  0  0  0  0  0  0  0  0  0
   -3.7467    9.2213    9.1534 C   0  0  0  0  0  0  0  0  0  0  0  0
   -2.6968   10.0172    9.6926 O   0  0  0  0  0  0  0  0  0  0  0  0
 14 15  1  0
  1 15  1  0
  1  2  1  0
  2  3  1  0
  2  4  1  0
  4  5  1  0
  5  6  1  0
  6  7  1  0
  7 11  1  0
 11 12  1  0
  7  1  1  0
  3  8  1  0
  5  9  1  0
  6 10  1  0
 12 13  1  0
M  END
> <minimizedAffinity>
-5.32997

> <CNNscore>
0.3766670227

> <CNNaffinity>
4.7672066689

> <CNN_VS>
1.7956495285

> <CNNaffinity_variance>
0.0093685118

$$$$



 15 15  0  0  0  0  0  0  0  0999 V2000
   -0.0253    9.3594    9.6950 C   0  0  0  0  0  0  0  0  0  0  0  0
    0.3547   10.5978    8.8462 C   0  0  0  0  0  0  0  0  0  0  0  0
    0.8816   11.6294    9.6999 O   0  0  0  0  0  0  0  0  0  0  0  0
   -0.8756   11.1566    8.1155 C   0  0  0  0  0  0  0  0  0  0  0  0
   -1.9760   11.5490    9.0279 N   0  0  0  0  0  0  0  0  0  0  0  0
   -1.9160   10.8336   10.2996 N   0  0  0  0  0  0  0  0  0  0  0  0
   -1.5256    9.4210   10.0793 C   0  0  0  0  0  0  0  0  0  0  0  0
    0.2057   11.8927   10.3439 H   0  0  0  0  0  0  0  0  0  0  0  0
   -2.8671   11.3430    8.5764 H   0  0  0  0  0  0  0  0  0  0  0  0
   -2.8328   10.8633   10.7456 H   0  0  0  0  0  0  0  0  0  0  0  0
   -1.8134    8.5505   11.3208 C   0  0  0  0  0  0  0  0  0  0  0  0
   -0.9838    8.9044   12.4248 O   0  0  0  0  0  0  0  0  0  0  0  0
   -0.0534    8.7672   12.1871 H   0  0  0  0  0  0  0  0  0  0  0  0
    0.9067    7.1689    9.6836 C   0  0  0  0  0  0  0  0  0  0  0  0
    0.1797    8.1449    8.9450 O   0  0  0  0  0  0  0  0  0  0  0  0
 14 15  1  0
  1 15  1  0
  1  2  1  0
  2  3  1  0
  2  4  1  0
  4  5  1  0
  5  6  1  0
  6  7  1  0
  7 11  1  0
 11 12  1  0
  7  1  1  0
  3  8  1  0
  5  9  1  0
  6 10  1  0
 12 13  1  0
M  END
> <minimizedAffinity>
-5.93928

> <CNNscore>
0.3715145290

> <CNNaffinity>
4.5033278465

> <CNN_VS>
1.6730517149

> <CNNaffinity_variance>
0.1553801149

$$$$



 15 15  0  0  0  0  0  0  0  0999 V2000
   -1.6282    8.0634   10.2032 C   0  0  0  0  0  0  0  0  0  0  0  0
   -0.3536    8.2954   11.0518 C   0  0  0  0  0  0  0  0  0  0  0  0
   -0.7196    8.7749   12.3582 O   0  0  0  0  0  0  0  0  0  0  0  0
    0.5587    9.3402   10.3914 C   0  0  0  0  0  0  0  0  0  0  0  0
   -0.0989   10.6530   10.1876 N   0  0  0  0  0  0  0  0  0  0  0  0
   -1.5524   10.5332   10.1145 N   0  0  0  0  0  0  0  0  0  0  0  0
   -1.9328    9.3215    9.3507 C   0  0  0  0  0  0  0  0  0  0  0  0
   -1.1908    9.6185   12.2726 H   0  0  0  0  0  0  0  0  0  0  0  0
    0.2419   11.0599    9.3166 H   0  0  0  0  0  0  0  0  0  0  0  0
   -1.9347   11.3570    9.6502 H   0  0  0  0  0  0  0  0  0  0  0  0
   -3.4172    9.3565    8.9297 C   0  0  0  0  0  0  0  0  0  0  0  0
   -3.6004   10.0041    7.6729 O   0  0  0  0  0  0  0  0  0  0  0  0
   -3.2978   10.9236    7.7358 H   0  0  0  0  0  0  0  0  0  0  0  0
   -0.6990    5.8957    9.8800 C   0  0  0  0  0  0  0  0  0  0  0  0
   -1.4416    6.9596    9.2942 O   0  0  0  0  0  0  0  0  0  0  0  0
 14 15  1  0
  1 15  1  0
  1  2  1  0
  2  3  1  0
  2  4  1  0
  4  5  1  0
  5  6  1  0
  6  7  1  0
  7 11  1  0
 11 12  1  0
  7  1  1  0
  3  8  1  0
  5  9  1  0
  6 10  1  0
 12 13  1  0
M  END
> <minimizedAffinity>
-4.98797

> <CNNscore>
0.3558664024

> <CNNaffinity>
4.7324442863

> <CNN_VS>
1.6841179132

> <CNNaffinity_variance>
0.3391532600

$$$$



 15 15  0  0  0  0  0  0  0  0999 V2000
   -0.0901    9.9377    9.5317 C   0  0  0  0  0  0  0  0  0  0  0  0
   -1.4070   10.6770    9.8747 C   0  0  0  0  0  0  0  0  0  0  0  0
   -1.7389   10.4627   11.2583 O   0  0  0  0  0  0  0  0  0  0  0  0
   -2.5663   10.1542    9.0129 C   0  0  0  0  0  0  0  0  0  0  0  0
   -2.8064    8.6995    9.1666 N   0  0  0  0  0  0  0  0  0  0  0  0
   -1.6118    7.9908    9.6174 N   0  0  0  0  0  0  0  0  0  0  0  0
   -0.4058    8.5359    8.9507 C   0  0  0  0  0  0  0  0  0  0  0  0
   -1.8674    9.5144   11.4169 H   0  0  0  0  0  0  0  0  0  0  0  0
   -3.0958    8.3169    8.2665 H   0  0  0  0  0  0  0  0  0  0  0  0
   -1.7028    7.0005    9.3905 H   0  0  0  0  0  0  0  0  0  0  0  0
    0.8048    7.5904    9.1019 C   0  0  0  0  0  0  0  0  0  0  0  0
    0.6204    6.3692    8.3898 O   0  0  0  0  0  0  0  0  0  0  0  0
   -0.1539    5.9032    8.7421 H   0  0  0  0  0  0  0  0  0  0  0  0
    0.1792   11.9923    8.3601 C   0  0  0  0  0  0  0  0  0  0  0  0
    0.6560   10.6621    8.5327 O   0  0  0  0  0  0  0  0  0  0  0  0
 14 15  1  0
  1 15  1  0
  1  2  1  0
  2  3  1  0
  2  4  1  0
  4  5  1  0
  5  6  1  0
  6  7  1  0
  7 11  1  0
 11 12  1  0
  7  1  1  0
  3  8  1  0
  5  9  1  0
  6 10  1  0
 12 13  1  0
M  END
> <minimizedAffinity>
-5.09380

> <CNNscore>
0.3487225771

> <CNNaffinity>
4.0606546402

> <CNN_VS>
1.4160419703

> <CNNaffinity_variance>
0.4899832308

$$$$
