


 30 32  0  0  0  0  0  0  0  0999 V2000
    9.6537    8.8795    4.2495 N   0  0  0  0  0  0  0  0  0  0  0  0
    9.2816    8.4636    3.3957 H   0  0  0  0  0  0  0  0  0  0  0  0
    7.8835    9.4524    5.9212 O   0  0  0  0  0  0  0  0  0  0  0  0
    8.5422   10.0324    4.7736 S   0  0  0  0  0  0  0  0  0  0  0  0
    9.2433   11.2944    4.8394 O   0  0  0  0  0  0  0  0  0  0  0  0
    7.3276   10.1132    3.4748 C   0  0  0  0  0  0  0  0  0  0  0  0
    7.7814   10.2236    2.1517 C   0  0  0  0  0  0  0  0  0  0  0  0
    6.8638   10.3357    1.1170 C   0  0  0  0  0  0  0  0  0  0  0  0
    7.4211   10.4905   -0.5028 Cl  0  0  0  0  0  0  0  0  0  0  0  0
    5.4991   10.3293    1.3813 C   0  0  0  0  0  0  0  0  0  0  0  0
    5.0314   10.1977    2.6996 C   0  0  0  0  0  0  0  0  0  0  0  0
    3.6617   10.1741    2.9748 C   0  0  0  0  0  0  0  0  0  0  0  0
    3.1259   10.0403    4.2063 N   0  0  0  0  0  0  0  0  0  0  0  0
    3.9940    9.9165    5.2253 C   0  0  0  0  0  0  0  0  0  0  0  0
    5.3723    9.9269    5.0684 C   0  0  0  0  0  0  0  0  0  0  0  0
    5.9367   10.0808    3.7805 C   0  0  0  0  0  0  0  0  0  0  0  0
   11.0258    9.3339    3.9563 C   0  0  0  0  0  0  0  0  0  0  0  0
   11.1099    9.7806    2.4852 C   0  0  0  0  0  0  0  0  0  0  0  0
   12.0736    9.0271    1.6777 N   0  0  0  0  0  0  0  0  0  0  0  0
   11.7054    8.9346    0.7310 H   0  0  0  0  0  0  0  0  0  0  0  0
   13.3797    9.6794    1.6105 C   0  0  0  0  0  0  0  0  0  0  0  0
   13.7401    9.8974    0.1734 C   0  0  0  0  0  0  0  0  0  0  0  0
   14.8680    9.4405   -0.3953 C   0  0  0  0  0  0  0  0  0  0  0  0
   15.2302    9.6515   -1.8040 C   0  0  0  0  0  0  0  0  0  0  0  0
   14.8126   10.7783   -2.5256 C   0  0  0  0  0  0  0  0  0  0  0  0
   15.1525   10.9282   -3.8739 C   0  0  0  0  0  0  0  0  0  0  0  0
   15.9047    9.9442   -4.5104 C   0  0  0  0  0  0  0  0  0  0  0  0
   16.3645   10.1446   -6.3326 Br  0  0  0  0  0  0  0  0  0  0  0  0
   16.3152    8.8107   -3.8136 C   0  0  0  0  0  0  0  0  0  0  0  0
   15.9731    8.6638   -2.4659 C   0  0  0  0  0  0  0  0  0  0  0  0
  3  4  2  0
  4  5  2  0
  4  1  1  0
  1 17  1  0
 17 18  1  0
 18 19  1  0
 19 21  1  0
 21 22  1  0
 22 23  2  0
 23 24  1  0
 24 25  2  0
 25 26  1  0
 26 27  2  0
 27 28  1  0
 27 29  1  0
 29 30  2  0
  4  6  1  0
  6  7  2  0
  7  8  1  0
  8  9  1  0
  8 10  2  0
 10 11  1  0
 11 12  2  0
 12 13  1  0
 13 14  2  0
 14 15  1  0
 15 16  2  0
 30 24  1  0
 16  6  1  0
 16 11  1  0
  1  2  1  0
 19 20  1  0
M  END
> <minimizedAffinity>
-9.33917

> <CNNscore>
0.8559190631

> <CNNaffinity>
7.2055687904

> <CNN_VS>
6.1673836708

> <CNNaffinity_variance>
0.2400315404

$$$$



 30 32  0  0  0  0  0  0  0  0999 V2000
    9.5343    8.8182    4.6052 N   0  0  0  0  0  0  0  0  0  0  0  0
    8.9578    8.1596    4.0813 H   0  0  0  0  0  0  0  0  0  0  0  0
    7.8798    9.9600    6.0936 O   0  0  0  0  0  0  0  0  0  0  0  0
    8.6068   10.2001    4.8684 S   0  0  0  0  0  0  0  0  0  0  0  0
    9.4848   11.3355    4.6993 O   0  0  0  0  0  0  0  0  0  0  0  0
    7.4066   10.1969    3.5539 C   0  0  0  0  0  0  0  0  0  0  0  0
    7.8731   10.2792    2.2331 C   0  0  0  0  0  0  0  0  0  0  0  0
    6.9654   10.3259    1.1848 C   0  0  0  0  0  0  0  0  0  0  0  0
    7.5375   10.4463   -0.4328 Cl  0  0  0  0  0  0  0  0  0  0  0  0
    5.5984   10.2817    1.4335 C   0  0  0  0  0  0  0  0  0  0  0  0
    5.1189   10.1776    2.7499 C   0  0  0  0  0  0  0  0  0  0  0  0
    3.7473   10.1165    3.0100 C   0  0  0  0  0  0  0  0  0  0  0  0
    3.2009   10.0051    4.2391 N   0  0  0  0  0  0  0  0  0  0  0  0
    4.0597    9.9444    5.2715 C   0  0  0  0  0  0  0  0  0  0  0  0
    5.4388    9.9965    5.1302 C   0  0  0  0  0  0  0  0  0  0  0  0
    6.0138   10.1272    3.8444 C   0  0  0  0  0  0  0  0  0  0  0  0
   10.8033    8.9742    3.8703 C   0  0  0  0  0  0  0  0  0  0  0  0
   10.9010    7.8838    2.7875 C   0  0  0  0  0  0  0  0  0  0  0  0
   12.0581    6.9947    2.9261 N   0  0  0  0  0  0  0  0  0  0  0  0
   12.2326    6.5428    2.0284 H   0  0  0  0  0  0  0  0  0  0  0  0
   13.2668    7.7073    3.3346 C   0  0  0  0  0  0  0  0  0  0  0  0
   14.1266    7.9350    2.1298 C   0  0  0  0  0  0  0  0  0  0  0  0
   13.9987    8.9870    1.3043 C   0  0  0  0  0  0  0  0  0  0  0  0
   14.8368    9.2172    0.1190 C   0  0  0  0  0  0  0  0  0  0  0  0
   16.0908    8.6119   -0.0424 C   0  0  0  0  0  0  0  0  0  0  0  0
   16.8722    8.8801   -1.1707 C   0  0  0  0  0  0  0  0  0  0  0  0
   16.4061    9.7650   -2.1397 C   0  0  0  0  0  0  0  0  0  0  0  0
   17.4612   10.1293   -3.6649 Br  0  0  0  0  0  0  0  0  0  0  0  0
   15.1698   10.3874   -1.9887 C   0  0  0  0  0  0  0  0  0  0  0  0
   14.3913   10.1174   -0.8590 C   0  0  0  0  0  0  0  0  0  0  0  0
  3  4  2  0
  4  5  2  0
  4  1  1  0
  1 17  1  0
 17 18  1  0
 18 19  1  0
 19 21  1  0
 21 22  1  0
 22 23  2  0
 23 24  1  0
 24 25  2  0
 25 26  1  0
 26 27  2  0
 27 28  1  0
 27 29  1  0
 29 30  2  0
  4  6  1  0
  6  7  2  0
  7  8  1  0
  8  9  1  0
  8 10  2  0
 10 11  1  0
 11 12  2  0
 12 13  1  0
 13 14  2  0
 14 15  1  0
 15 16  2  0
 30 24  1  0
 16  6  1  0
 16 11  1  0
  1  2  1  0
 19 20  1  0
M  END
> <minimizedAffinity>
-9.27095

> <CNNscore>
0.8029525280

> <CNNaffinity>
7.1138610840

> <CNN_VS>
5.7120928764

> <CNNaffinity_variance>
0.3799334466

$$$$



 30 32  0  0  0  0  0  0  0  0999 V2000
    9.8171    9.8229    0.0437 N   0  0  0  0  0  0  0  0  0  0  0  0
   10.3295   10.5398    0.5573 H   0  0  0  0  0  0  0  0  0  0  0  0
    8.2861   11.7361   -0.4585 O   0  0  0  0  0  0  0  0  0  0  0  0
    8.2193   10.3417   -0.0861 S   0  0  0  0  0  0  0  0  0  0  0  0
    7.5209    9.3601   -0.8842 O   0  0  0  0  0  0  0  0  0  0  0  0
    7.5893   10.2877    1.5779 C   0  0  0  0  0  0  0  0  0  0  0  0
    8.5126   10.2938    2.6345 C   0  0  0  0  0  0  0  0  0  0  0  0
    8.0607   10.2059    3.9433 C   0  0  0  0  0  0  0  0  0  0  0  0
    9.1941   10.1939    5.2370 Cl  0  0  0  0  0  0  0  0  0  0  0  0
    6.6999   10.1219    4.2150 C   0  0  0  0  0  0  0  0  0  0  0  0
    5.7641   10.1365    3.1673 C   0  0  0  0  0  0  0  0  0  0  0  0
    4.3934   10.0686    3.4301 C   0  0  0  0  0  0  0  0  0  0  0  0
    3.4269   10.0879    2.4881 N   0  0  0  0  0  0  0  0  0  0  0  0
    3.8381   10.1859    1.2120 C   0  0  0  0  0  0  0  0  0  0  0  0
    5.1714   10.2592    0.8360 C   0  0  0  0  0  0  0  0  0  0  0  0
    6.1870   10.2253    1.8201 C   0  0  0  0  0  0  0  0  0  0  0  0
   10.0670    8.5350    0.7174 C   0  0  0  0  0  0  0  0  0  0  0  0
   11.5609    8.4299    1.0751 C   0  0  0  0  0  0  0  0  0  0  0  0
   11.9670    9.2438    2.2247 N   0  0  0  0  0  0  0  0  0  0  0  0
   12.2587    8.6220    2.9788 H   0  0  0  0  0  0  0  0  0  0  0  0
   13.0711   10.1478    1.9093 C   0  0  0  0  0  0  0  0  0  0  0  0
   13.5060    9.9085    0.4965 C   0  0  0  0  0  0  0  0  0  0  0  0
   14.3754   10.6909   -0.1641 C   0  0  0  0  0  0  0  0  0  0  0  0
   14.8062   10.4644   -1.5509 C   0  0  0  0  0  0  0  0  0  0  0  0
   15.6126    9.3783   -1.9184 C   0  0  0  0  0  0  0  0  0  0  0  0
   16.0270    9.2139   -3.2439 C   0  0  0  0  0  0  0  0  0  0  0  0
   15.6442   10.1431   -4.2079 C   0  0  0  0  0  0  0  0  0  0  0  0
   16.2040    9.9231   -5.9996 Br  0  0  0  0  0  0  0  0  0  0  0  0
   14.8563   11.2366   -3.8583 C   0  0  0  0  0  0  0  0  0  0  0  0
   14.4442   11.3981   -2.5320 C   0  0  0  0  0  0  0  0  0  0  0  0
  3  4  2  0
  4  5  2  0
  4  1  1  0
  1 17  1  0
 17 18  1  0
 18 19  1  0
 19 21  1  0
 21 22  1  0
 22 23  2  0
 23 24  1  0
 24 25  2  0
 25 26  1  0
 26 27  2  0
 27 28  1  0
 27 29  1  0
 29 30  2  0
  4  6  1  0
  6  7  2  0
  7  8  1  0
  8  9  1  0
  8 10  2  0
 10 11  1  0
 11 12  2  0
 12 13  1  0
 13 14  2  0
 14 15  1  0
 15 16  2  0
 30 24  1  0
 16  6  1  0
 16 11  1  0
  1  2  1  0
 19 20  1  0
M  END
> <minimizedAffinity>
-8.11818

> <CNNscore>
0.7554368377

> <CNNaffinity>
6.9849629402

> <CNN_VS>
5.2766981125

> <CNNaffinity_variance>
0.3743194044

$$$$



 30 32  0  0  0  0  0  0  0  0999 V2000
   10.2933    9.5978    3.4157 N   0  0  0  0  0  0  0  0  0  0  0  0
    9.9918    9.3019    2.4873 H   0  0  0  0  0  0  0  0  0  0  0  0
    8.6429    8.7696    5.1031 O   0  0  0  0  0  0  0  0  0  0  0  0
    8.9069    9.9465    4.3076 S   0  0  0  0  0  0  0  0  0  0  0  0
    9.1021   11.2514    4.8972 O   0  0  0  0  0  0  0  0  0  0  0  0
    7.6044   10.0477    3.0985 C   0  0  0  0  0  0  0  0  0  0  0  0
    7.9643   10.1232    1.7444 C   0  0  0  0  0  0  0  0  0  0  0  0
    6.9782   10.2498    0.7767 C   0  0  0  0  0  0  0  0  0  0  0  0
    7.4211   10.3618   -0.8816 Cl  0  0  0  0  0  0  0  0  0  0  0  0
    5.6367   10.2923    1.1386 C   0  0  0  0  0  0  0  0  0  0  0  0
    5.2619   10.1960    2.4892 C   0  0  0  0  0  0  0  0  0  0  0  0
    3.9157   10.2217    2.8626 C   0  0  0  0  0  0  0  0  0  0  0  0
    3.4667   10.1241    4.1317 N   0  0  0  0  0  0  0  0  0  0  0  0
    4.4020    9.9871    5.0876 C   0  0  0  0  0  0  0  0  0  0  0  0
    5.7649    9.9498    4.8317 C   0  0  0  0  0  0  0  0  0  0  0  0
    6.2390   10.0657    3.5040 C   0  0  0  0  0  0  0  0  0  0  0  0
   11.2814   10.6775    3.2347 C   0  0  0  0  0  0  0  0  0  0  0  0
   12.5436   10.1042    2.5648 C   0  0  0  0  0  0  0  0  0  0  0  0
   12.3299    9.5930    1.2077 N   0  0  0  0  0  0  0  0  0  0  0  0
   11.5230    8.9692    1.2166 H   0  0  0  0  0  0  0  0  0  0  0  0
   12.0867   10.6596    0.2387 C   0  0  0  0  0  0  0  0  0  0  0  0
   13.2018   10.6711   -0.7607 C   0  0  0  0  0  0  0  0  0  0  0  0
   14.3607   10.0111   -0.6001 C   0  0  0  0  0  0  0  0  0  0  0  0
   15.4607   10.0185   -1.5748 C   0  0  0  0  0  0  0  0  0  0  0  0
   15.7825    8.8969   -2.3517 C   0  0  0  0  0  0  0  0  0  0  0  0
   16.8564    8.9336   -3.2467 C   0  0  0  0  0  0  0  0  0  0  0  0
   17.6214   10.0916   -3.3612 C   0  0  0  0  0  0  0  0  0  0  0  0
   19.0736   10.1428   -4.5697 Br  0  0  0  0  0  0  0  0  0  0  0  0
   17.3261   11.2101   -2.5862 C   0  0  0  0  0  0  0  0  0  0  0  0
   16.2520   11.1698   -1.6920 C   0  0  0  0  0  0  0  0  0  0  0  0
  3  4  2  0
  4  5  2  0
  4  1  1  0
  1 17  1  0
 17 18  1  0
 18 19  1  0
 19 21  1  0
 21 22  1  0
 22 23  2  0
 23 24  1  0
 24 25  2  0
 25 26  1  0
 26 27  2  0
 27 28  1  0
 27 29  1  0
 29 30  2  0
  4  6  1  0
  6  7  2  0
  7  8  1  0
  8  9  1  0
  8 10  2  0
 10 11  1  0
 11 12  2  0
 12 13  1  0
 13 14  2  0
 14 15  1  0
 15 16  2  0
 30 24  1  0
 16  6  1  0
 16 11  1  0
  1  2  1  0
 19 20  1  0
M  END
> <minimizedAffinity>
-9.08916

> <CNNscore>
0.7246901393

> <CNNaffinity>
7.0356502533

> <CNN_VS>
5.0986661911

> <CNNaffinity_variance>
0.2541288435

$$$$



 30 32  0  0  0  0  0  0  0  0999 V2000
   10.0438    9.2563    3.8812 N   0  0  0  0  0  0  0  0  0  0  0  0
    9.8290    9.1676    2.8881 H   0  0  0  0  0  0  0  0  0  0  0  0
    8.2384    8.9800    5.5903 O   0  0  0  0  0  0  0  0  0  0  0  0
    8.7017    9.9513    4.6262 S   0  0  0  0  0  0  0  0  0  0  0  0
    9.0767   11.2957    5.0010 O   0  0  0  0  0  0  0  0  0  0  0  0
    7.4654   10.0312    3.3481 C   0  0  0  0  0  0  0  0  0  0  0  0
    7.8967   10.0800    2.0137 C   0  0  0  0  0  0  0  0  0  0  0  0
    6.9635   10.1894    0.9929 C   0  0  0  0  0  0  0  0  0  0  0  0
    7.4939   10.2687   -0.6414 Cl  0  0  0  0  0  0  0  0  0  0  0  0
    5.6048   10.2412    1.2823 C   0  0  0  0  0  0  0  0  0  0  0  0
    5.1588   10.1716    2.6128 C   0  0  0  0  0  0  0  0  0  0  0  0
    3.7948   10.2067    2.9138 C   0  0  0  0  0  0  0  0  0  0  0  0
    3.2790   10.1344    4.1590 N   0  0  0  0  0  0  0  0  0  0  0  0
    4.1620   10.0144    5.1655 C   0  0  0  0  0  0  0  0  0  0  0  0
    5.5364    9.9699    4.9830 C   0  0  0  0  0  0  0  0  0  0  0  0
    6.0804   10.0593    3.6803 C   0  0  0  0  0  0  0  0  0  0  0  0
   11.3325    9.9648    3.9916 C   0  0  0  0  0  0  0  0  0  0  0  0
   12.4532    9.0722    3.4278 C   0  0  0  0  0  0  0  0  0  0  0  0
   13.8087    9.5692    3.6815 N   0  0  0  0  0  0  0  0  0  0  0  0
   13.7586   10.3171    4.3733 H   0  0  0  0  0  0  0  0  0  0  0  0
   14.7032    8.5275    4.1817 C   0  0  0  0  0  0  0  0  0  0  0  0
   15.4286    9.0470    5.3844 C   0  0  0  0  0  0  0  0  0  0  0  0
   16.6980    9.4859    5.3639 C   0  0  0  0  0  0  0  0  0  0  0  0
   17.4179    9.9954    6.5396 C   0  0  0  0  0  0  0  0  0  0  0  0
   16.8958    9.9037    7.8372 C   0  0  0  0  0  0  0  0  0  0  0  0
   17.5977   10.4281    8.9272 C   0  0  0  0  0  0  0  0  0  0  0  0
   18.8230   11.0572    8.7221 C   0  0  0  0  0  0  0  0  0  0  0  0
   19.7727   11.7672   10.1939 Br  0  0  0  0  0  0  0  0  0  0  0  0
   19.3499   11.1713    7.4383 C   0  0  0  0  0  0  0  0  0  0  0  0
   18.6451   10.6463    6.3507 C   0  0  0  0  0  0  0  0  0  0  0  0
  3  4  2  0
  4  5  2  0
  4  1  1  0
  1 17  1  0
 17 18  1  0
 18 19  1  0
 19 21  1  0
 21 22  1  0
 22 23  2  0
 23 24  1  0
 24 25  2  0
 25 26  1  0
 26 27  2  0
 27 28  1  0
 27 29  1  0
 29 30  2  0
  4  6  1  0
  6  7  2  0
  7  8  1  0
  8  9  1  0
  8 10  2  0
 10 11  1  0
 11 12  2  0
 12 13  1  0
 13 14  2  0
 14 15  1  0
 15 16  2  0
 30 24  1  0
 16  6  1  0
 16 11  1  0
  1  2  1  0
 19 20  1  0
M  END
> <minimizedAffinity>
-8.41773

> <CNNscore>
0.7159438729

> <CNNaffinity>
6.6340117455

> <CNN_VS>
4.7495799065

> <CNNaffinity_variance>
0.5225751996

$$$$



 30 32  0  0  0  0  0  0  0  0999 V2000
   14.6472    9.2084    2.5659 N   0  0  0  0  0  0  0  0  0  0  0  0
   14.1331    9.8918    3.1219 H   0  0  0  0  0  0  0  0  0  0  0  0
   14.6609    8.1594    0.2952 O   0  0  0  0  0  0  0  0  0  0  0  0
   13.9127    9.1373    1.0511 S   0  0  0  0  0  0  0  0  0  0  0  0
   12.4904    9.0176    1.2774 O   0  0  0  0  0  0  0  0  0  0  0  0
   14.2487   10.7206    0.3104 C   0  0  0  0  0  0  0  0  0  0  0  0
   13.3564   11.7728    0.5668 C   0  0  0  0  0  0  0  0  0  0  0  0
   13.5603   13.0084   -0.0302 C   0  0  0  0  0  0  0  0  0  0  0  0
   12.4553   14.2921    0.2693 Cl  0  0  0  0  0  0  0  0  0  0  0  0
   14.6472   13.2138   -0.8723 C   0  0  0  0  0  0  0  0  0  0  0  0
   15.5599   12.1748   -1.1203 C   0  0  0  0  0  0  0  0  0  0  0  0
   16.6644   12.3751   -1.9523 C   0  0  0  0  0  0  0  0  0  0  0  0
   17.5946   11.4391   -2.2358 N   0  0  0  0  0  0  0  0  0  0  0  0
   17.4273   10.2365   -1.6589 C   0  0  0  0  0  0  0  0  0  0  0  0
   16.3690    9.9267   -0.8171 C   0  0  0  0  0  0  0  0  0  0  0  0
   15.3852   10.9014   -0.5292 C   0  0  0  0  0  0  0  0  0  0  0  0
   14.7169    7.9632    3.3529 C   0  0  0  0  0  0  0  0  0  0  0  0
   13.3000    7.5705    3.8096 C   0  0  0  0  0  0  0  0  0  0  0  0
   12.9184    8.0995    5.1223 N   0  0  0  0  0  0  0  0  0  0  0  0
   13.7300    8.0609    5.7389 H   0  0  0  0  0  0  0  0  0  0  0  0
   12.4471    9.4812    5.0543 C   0  0  0  0  0  0  0  0  0  0  0  0
   10.9762    9.4791    4.7730 C   0  0  0  0  0  0  0  0  0  0  0  0
   10.3967   10.2034    3.8014 C   0  0  0  0  0  0  0  0  0  0  0  0
    8.9542   10.2086    3.5197 C   0  0  0  0  0  0  0  0  0  0  0  0
    8.0017   10.5545    4.4883 C   0  0  0  0  0  0  0  0  0  0  0  0
    6.6359   10.5178    4.1903 C   0  0  0  0  0  0  0  0  0  0  0  0
    6.2154   10.1241    2.9225 C   0  0  0  0  0  0  0  0  0  0  0  0
    4.3699   10.0732    2.5183 Br  0  0  0  0  0  0  0  0  0  0  0  0
    7.1466    9.7621    1.9526 C   0  0  0  0  0  0  0  0  0  0  0  0
    8.5114    9.7994    2.2541 C   0  0  0  0  0  0  0  0  0  0  0  0
  3  4  2  0
  4  5  2  0
  4  1  1  0
  1 17  1  0
 17 18  1  0
 18 19  1  0
 19 21  1  0
 21 22  1  0
 22 23  2  0
 23 24  1  0
 24 25  2  0
 25 26  1  0
 26 27  2  0
 27 28  1  0
 27 29  1  0
 29 30  2  0
  4  6  1  0
  6  7  2  0
  7  8  1  0
  8  9  1  0
  8 10  2  0
 10 11  1  0
 11 12  2  0
 12 13  1  0
 13 14  2  0
 14 15  1  0
 15 16  2  0
 30 24  1  0
 16  6  1  0
 16 11  1  0
  1  2  1  0
 19 20  1  0
M  END
> <minimizedAffinity>
-8.73720

> <CNNscore>
0.3405471742

> <CNNaffinity>
6.6815757751

> <CNN_VS>
2.2753918171

> <CNNaffinity_variance>
0.0787503049

$$$$



 30 32  0  0  0  0  0  0  0  0999 V2000
   11.0219    9.2412    2.9279 N   0  0  0  0  0  0  0  0  0  0  0  0
   10.6996    9.0833    1.9731 H   0  0  0  0  0  0  0  0  0  0  0  0
    9.4771    7.7935    4.2600 O   0  0  0  0  0  0  0  0  0  0  0  0
    9.6691    9.1871    3.9310 S   0  0  0  0  0  0  0  0  0  0  0  0
    9.8535   10.2028    4.9424 O   0  0  0  0  0  0  0  0  0  0  0  0
    8.3091    9.6559    2.8826 C   0  0  0  0  0  0  0  0  0  0  0  0
    8.5572    9.8168    1.5109 C   0  0  0  0  0  0  0  0  0  0  0  0
    7.5325   10.2264    0.6700 C   0  0  0  0  0  0  0  0  0  0  0  0
    7.8421   10.4421   -1.0081 Cl  0  0  0  0  0  0  0  0  0  0  0  0
    6.2603   10.4687    1.1753 C   0  0  0  0  0  0  0  0  0  0  0  0
    5.9934   10.2906    2.5431 C   0  0  0  0  0  0  0  0  0  0  0  0
    4.7144   10.5160    3.0587 C   0  0  0  0  0  0  0  0  0  0  0  0
    4.3676   10.3592    4.3537 N   0  0  0  0  0  0  0  0  0  0  0  0
    5.3396    9.9499    5.1872 C   0  0  0  0  0  0  0  0  0  0  0  0
    6.6430    9.6969    4.7851 C   0  0  0  0  0  0  0  0  0  0  0  0
    7.0127    9.8737    3.4312 C   0  0  0  0  0  0  0  0  0  0  0  0
   11.8227   10.4795    2.9233 C   0  0  0  0  0  0  0  0  0  0  0  0
   12.8589   10.4105    1.7866 C   0  0  0  0  0  0  0  0  0  0  0  0
   12.8406    9.1578    1.0256 N   0  0  0  0  0  0  0  0  0  0  0  0
   12.8912    9.3786    0.0311 H   0  0  0  0  0  0  0  0  0  0  0  0
   13.9563    8.2780    1.3675 C   0  0  0  0  0  0  0  0  0  0  0  0
   14.6803    8.8484    2.5478 C   0  0  0  0  0  0  0  0  0  0  0  0
   14.7349    8.2569    3.7526 C   0  0  0  0  0  0  0  0  0  0  0  0
   15.4414    8.8105    4.9164 C   0  0  0  0  0  0  0  0  0  0  0  0
   14.8212    9.6741    5.8299 C   0  0  0  0  0  0  0  0  0  0  0  0
   15.5362   10.2044    6.9085 C   0  0  0  0  0  0  0  0  0  0  0  0
   16.8806    9.8808    7.0724 C   0  0  0  0  0  0  0  0  0  0  0  0
   17.8487   10.5973    8.5289 Br  0  0  0  0  0  0  0  0  0  0  0  0
   17.5174    9.0370    6.1662 C   0  0  0  0  0  0  0  0  0  0  0  0
   16.7996    8.5089    5.0887 C   0  0  0  0  0  0  0  0  0  0  0  0
  3  4  2  0
  4  5  2  0
  4  1  1  0
  1 17  1  0
 17 18  1  0
 18 19  1  0
 19 21  1  0
 21 22  1  0
 22 23  2  0
 23 24  1  0
 24 25  2  0
 25 26  1  0
 26 27  2  0
 27 28  1  0
 27 29  1  0
 29 30  2  0
  4  6  1  0
  6  7  2  0
  7  8  1  0
  8  9  1  0
  8 10  2  0
 10 11  1  0
 11 12  2  0
 12 13  1  0
 13 14  2  0
 14 15  1  0
 15 16  2  0
 30 24  1  0
 16  6  1  0
 16 11  1  0
  1  2  1  0
 19 20  1  0
M  END
> <minimizedAffinity>
-8.16864

> <CNNscore>
0.3236113489

> <CNNaffinity>
6.7483825684

> <CNN_VS>
2.1838531494

> <CNNaffinity_variance>
0.1344420612

$$$$



 30 32  0  0  0  0  0  0  0  0999 V2000
   14.2890   11.7980   -0.2771 N   0  0  0  0  0  0  0  0  0  0  0  0
   15.0346   11.5828    0.3848 H   0  0  0  0  0  0  0  0  0  0  0  0
   14.0097   13.6206   -1.9673 O   0  0  0  0  0  0  0  0  0  0  0  0
   14.9846   12.6332   -1.5646 S   0  0  0  0  0  0  0  0  0  0  0  0
   16.3256   12.9894   -1.1607 O   0  0  0  0  0  0  0  0  0  0  0  0
   15.0757   11.4394   -2.8819 C   0  0  0  0  0  0  0  0  0  0  0  0
   14.7621   11.8647   -4.1818 C   0  0  0  0  0  0  0  0  0  0  0  0
   14.7772   10.9518   -5.2265 C   0  0  0  0  0  0  0  0  0  0  0  0
   14.3738   11.4696   -6.8163 Cl  0  0  0  0  0  0  0  0  0  0  0  0
   15.1103    9.6220   -4.9959 C   0  0  0  0  0  0  0  0  0  0  0  0
   15.4472    9.1881   -3.7028 C   0  0  0  0  0  0  0  0  0  0  0  0
   15.7990    7.8572   -3.4628 C   0  0  0  0  0  0  0  0  0  0  0  0
   16.1465    7.3580   -2.2579 N   0  0  0  0  0  0  0  0  0  0  0  0
   16.1526    8.2254   -1.2309 C   0  0  0  0  0  0  0  0  0  0  0  0
   15.8211    9.5668   -1.3539 C   0  0  0  0  0  0  0  0  0  0  0  0
   15.4432   10.0898   -2.6127 C   0  0  0  0  0  0  0  0  0  0  0  0
   13.2131   12.4704    0.4748 C   0  0  0  0  0  0  0  0  0  0  0  0
   11.9481   11.5932    0.4460 C   0  0  0  0  0  0  0  0  0  0  0  0
   12.2086   10.1522    0.5121 N   0  0  0  0  0  0  0  0  0  0  0  0
   13.1643    9.9782    0.2009 H   0  0  0  0  0  0  0  0  0  0  0  0
   12.0505    9.6154    1.8621 C   0  0  0  0  0  0  0  0  0  0  0  0
   10.5920    9.5705    2.1989 C   0  0  0  0  0  0  0  0  0  0  0  0
   10.0321   10.2636    3.2041 C   0  0  0  0  0  0  0  0  0  0  0  0
    8.6024   10.2239    3.5426 C   0  0  0  0  0  0  0  0  0  0  0  0
    7.5992   10.2199    2.5636 C   0  0  0  0  0  0  0  0  0  0  0  0
    6.2486   10.2126    2.9263 C   0  0  0  0  0  0  0  0  0  0  0  0
    5.8947   10.2198    4.2731 C   0  0  0  0  0  0  0  0  0  0  0  0
    4.0700   10.2107    4.7653 Br  0  0  0  0  0  0  0  0  0  0  0  0
    6.8775   10.2394    5.2594 C   0  0  0  0  0  0  0  0  0  0  0  0
    8.2269   10.2472    4.8931 C   0  0  0  0  0  0  0  0  0  0  0  0
  3  4  2  0
  4  5  2  0
  4  1  1  0
  1 17  1  0
 17 18  1  0
 18 19  1  0
 19 21  1  0
 21 22  1  0
 22 23  2  0
 23 24  1  0
 24 25  2  0
 25 26  1  0
 26 27  2  0
 27 28  1  0
 27 29  1  0
 29 30  2  0
  4  6  1  0
  6  7  2  0
  7  8  1  0
  8  9  1  0
  8 10  2  0
 10 11  1  0
 11 12  2  0
 12 13  1  0
 13 14  2  0
 14 15  1  0
 15 16  2  0
 30 24  1  0
 16  6  1  0
 16 11  1  0
  1  2  1  0
 19 20  1  0
M  END
> <minimizedAffinity>
-8.20654

> <CNNscore>
0.3074750304

> <CNNaffinity>
6.0679984093

> <CNN_VS>
1.8657579422

> <CNNaffinity_variance>
0.7438848019

$$$$



 30 32  0  0  0  0  0  0  0  0999 V2000
   14.3148    7.6898    1.0421 N   0  0  0  0  0  0  0  0  0  0  0  0
   14.0712    6.7041    0.9440 H   0  0  0  0  0  0  0  0  0  0  0  0
   16.7345    8.3233    1.0190 O   0  0  0  0  0  0  0  0  0  0  0  0
   15.6814    7.9670    0.0962 S   0  0  0  0  0  0  0  0  0  0  0  0
   15.7960    6.8519   -0.8159 O   0  0  0  0  0  0  0  0  0  0  0  0
   15.2983    9.4363   -0.8328 C   0  0  0  0  0  0  0  0  0  0  0  0
   14.8561   10.5667   -0.1287 C   0  0  0  0  0  0  0  0  0  0  0  0
   14.5040   11.7151   -0.8230 C   0  0  0  0  0  0  0  0  0  0  0  0
   13.9436   13.0938    0.0393 Cl  0  0  0  0  0  0  0  0  0  0  0  0
   14.5959   11.7568   -2.2094 C   0  0  0  0  0  0  0  0  0  0  0  0
   15.0576   10.6391   -2.9246 C   0  0  0  0  0  0  0  0  0  0  0  0
   15.1688   10.6756   -4.3170 C   0  0  0  0  0  0  0  0  0  0  0  0
   15.6122    9.6551   -5.0810 N   0  0  0  0  0  0  0  0  0  0  0  0
   15.9724    8.5348   -4.4312 C   0  0  0  0  0  0  0  0  0  0  0  0
   15.9032    8.3876   -3.0535 C   0  0  0  0  0  0  0  0  0  0  0  0
   15.4260    9.4506   -2.2514 C   0  0  0  0  0  0  0  0  0  0  0  0
   14.4100    7.9784    2.4852 C   0  0  0  0  0  0  0  0  0  0  0  0
   13.5859    6.9390    3.2669 C   0  0  0  0  0  0  0  0  0  0  0  0
   12.1418    7.1903    3.2715 N   0  0  0  0  0  0  0  0  0  0  0  0
   11.7290    6.7103    4.0713 H   0  0  0  0  0  0  0  0  0  0  0  0
   11.8207    8.6131    3.3622 C   0  0  0  0  0  0  0  0  0  0  0  0
   10.3680    8.7627    3.6936 C   0  0  0  0  0  0  0  0  0  0  0  0
    9.6679    9.8937    3.5061 C   0  0  0  0  0  0  0  0  0  0  0  0
    8.2428   10.0497    3.8302 C   0  0  0  0  0  0  0  0  0  0  0  0
    7.7736   10.0907    5.1505 C   0  0  0  0  0  0  0  0  0  0  0  0
    6.4061   10.2096    5.4180 C   0  0  0  0  0  0  0  0  0  0  0  0
    5.4990   10.2777    4.3636 C   0  0  0  0  0  0  0  0  0  0  0  0
    3.6505   10.4377    4.7233 Br  0  0  0  0  0  0  0  0  0  0  0  0
    5.9455   10.2229    3.0459 C   0  0  0  0  0  0  0  0  0  0  0  0
    7.3134   10.1034    2.7820 C   0  0  0  0  0  0  0  0  0  0  0  0
  3  4  2  0
  4  5  2  0
  4  1  1  0
  1 17  1  0
 17 18  1  0
 18 19  1  0
 19 21  1  0
 21 22  1  0
 22 23  2  0
 23 24  1  0
 24 25  2  0
 25 26  1  0
 26 27  2  0
 27 28  1  0
 27 29  1  0
 29 30  2  0
  4  6  1  0
  6  7  2  0
  7  8  1  0
  8  9  1  0
  8 10  2  0
 10 11  1  0
 11 12  2  0
 12 13  1  0
 13 14  2  0
 14 15  1  0
 15 16  2  0
 30 24  1  0
 16  6  1  0
 16 11  1  0
  1  2  1  0
 19 20  1  0
M  END
> <minimizedAffinity>
-9.49913

> <CNNscore>
0.2565689683

> <CNNaffinity>
6.3845314980

> <CNN_VS>
1.6380726099

> <CNNaffinity_variance>
0.4432860911

$$$$
