


 28 29  0  0  0  0  0  0  0  0999 V2000
   -8.4948   17.9099   20.0802 C   0  0  0  0  0  0  0  0  0  0  0  0
   -8.7756   16.5031   20.6781 C   0  0  0  0  0  0  0  0  0  0  0  0
   -8.5029   15.4307   19.7326 O   0  0  0  0  0  0  0  0  0  0  0  0
   -7.5579   14.4897   20.3275 C   0  0  0  0  0  0  0  0  0  0  0  0
   -7.7370   14.7290   21.8429 C   0  0  0  0  0  0  0  0  0  0  0  0
   -7.9937   16.2137   21.9624 C   0  0  0  0  0  0  0  0  0  0  0  0
   -6.7593   16.9168   22.0419 O   0  0  0  0  0  0  0  0  0  0  0  0
   -6.9052   18.3427   22.0012 C   0  0  0  0  0  0  0  0  0  0  0  0
   -8.1709   18.8332   21.2791 C   0  0  0  0  0  0  0  0  0  0  0  0
   -8.0935   20.2059   20.9071 O   0  0  0  0  0  0  0  0  0  0  0  0
   -7.3674   20.3293   20.2759 H   0  0  0  0  0  0  0  0  0  0  0  0
   -6.7871   16.5371   18.9674 C   0  0  0  0  0  0  0  0  0  0  0  0
   -7.4552   17.8312   19.0216 N   0  0  0  0  0  0  0  0  0  0  0  0
   -7.8977   18.0055   18.1192 H   0  0  0  0  0  0  0  0  0  0  0  0
   -6.1490   14.8481   19.7944 C   0  0  0  0  0  0  0  0  0  0  0  0
   -5.9028   14.7380   18.2825 C   0  0  0  0  0  0  0  0  0  0  0  0
   -6.2680   13.4143   17.7551 N   0  0  0  0  0  0  0  0  0  0  0  0
   -5.6928   12.6999   18.2015 H   0  0  0  0  0  0  0  0  0  0  0  0
   -6.1124   13.3952   16.7472 H   0  0  0  0  0  0  0  0  0  0  0  0
   -4.4385   15.0918   17.9887 C   0  0  0  0  0  0  0  0  0  0  0  0
   -3.9474   16.1974   18.1633 O   0  0  0  0  0  0  0  0  0  0  0  0
   -3.7135   14.0753   17.4842 O   0  0  0  0  0  0  0  0  0  0  0  0
   -4.1089   13.2353   17.3581 H   0  0  0  0  0  0  0  0  0  0  0  0
   -8.0233   13.0315   19.9986 C   0  0  0  0  0  0  0  0  0  0  0  0
   -9.4944   12.6027   20.3053 N   0  0  0  0  0  0  0  0  0  0  0  0
  -10.5037   13.1444   19.3038 C   0  0  0  0  0  0  0  0  0  0  0  0
   -9.5404   11.0691   20.2049 C   0  0  0  0  0  0  0  0  0  0  0  0
   -9.9330   12.9841   21.7148 C   0  0  0  0  0  0  0  0  0  0  0  0
 12 13  1  0
  1 13  1  0
  1  2  1  0
  2  3  1  0
  3  4  1  0
  4 15  1  0
 15 16  1  0
 16 17  1  0
 16 20  1  0
 20 21  2  0
 20 22  1  0
  4 24  1  0
 24 25  1  0
 25 26  1  0
 25 27  1  0
 25 28  1  0
  4  5  1  0
  6  5  1  0
  6  7  1  0
  7  8  1  0
  8  9  1  0
  9 10  1  0
  9  1  1  0
  6  2  1  0
 13 14  1  0
 17 18  1  0
 17 19  1  0
 22 23  1  0
 10 11  1  0
M  CHG 1  25   1
M  END
> <minimizedAffinity>
-4.51941

> <CNNscore>
0.7047619224

> <CNNaffinity>
7.2013325691

> <CNN_VS>
5.0752248764

> <CNNaffinity_variance>
0.8514377475

$$$$



 28 29  0  0  0  0  0  0  0  0999 V2000
   -9.6803   13.8638   21.3209 C   0  0  0  0  0  0  0  0  0  0  0  0
   -8.8489   15.0798   21.8161 C   0  0  0  0  0  0  0  0  0  0  0  0
   -7.4494   14.9949   21.4253 O   0  0  0  0  0  0  0  0  0  0  0  0
   -7.0775   16.2019   20.6924 C   0  0  0  0  0  0  0  0  0  0  0  0
   -8.1242   17.2333   21.1683 C   0  0  0  0  0  0  0  0  0  0  0  0
   -9.3928   16.4303   21.3423 C   0  0  0  0  0  0  0  0  0  0  0  0
  -10.0944   16.3539   20.1068 O   0  0  0  0  0  0  0  0  0  0  0  0
  -11.2309   15.4803   20.1432 C   0  0  0  0  0  0  0  0  0  0  0  0
  -11.1403   14.3606   21.1931 C   0  0  0  0  0  0  0  0  0  0  0  0
  -12.0591   13.3007   20.9458 O   0  0  0  0  0  0  0  0  0  0  0  0
  -11.8483   12.8815   20.0969 H   0  0  0  0  0  0  0  0  0  0  0  0
   -9.0097   11.8300   20.1154 C   0  0  0  0  0  0  0  0  0  0  0  0
   -9.0809   13.2855   20.0905 N   0  0  0  0  0  0  0  0  0  0  0  0
   -9.6467   13.5686   19.2904 H   0  0  0  0  0  0  0  0  0  0  0  0
   -7.1593   15.8710   19.1820 C   0  0  0  0  0  0  0  0  0  0  0  0
   -6.3226   14.6950   18.6573 C   0  0  0  0  0  0  0  0  0  0  0  0
   -6.2403   13.5942   19.6294 N   0  0  0  0  0  0  0  0  0  0  0  0
   -5.7852   13.9251   20.4801 H   0  0  0  0  0  0  0  0  0  0  0  0
   -5.6986   12.8277   19.2301 H   0  0  0  0  0  0  0  0  0  0  0  0
   -4.9351   15.2117   18.2526 C   0  0  0  0  0  0  0  0  0  0  0  0
   -4.4941   16.3115   18.5522 O   0  0  0  0  0  0  0  0  0  0  0  0
   -4.2229   14.3534   17.4979 O   0  0  0  0  0  0  0  0  0  0  0  0
   -4.5792   13.5148   17.2794 H   0  0  0  0  0  0  0  0  0  0  0  0
   -5.6648   16.6713   21.1771 C   0  0  0  0  0  0  0  0  0  0  0  0
   -5.4752   17.1551   22.6509 N   0  0  0  0  0  0  0  0  0  0  0  0
   -4.0165   17.2573   23.0713 C   0  0  0  0  0  0  0  0  0  0  0  0
   -6.0671   18.5717   22.7333 C   0  0  0  0  0  0  0  0  0  0  0  0
   -6.2256   16.2848   23.6531 C   0  0  0  0  0  0  0  0  0  0  0  0
 12 13  1  0
  1 13  1  0
  1  2  1  0
  2  3  1  0
  3  4  1  0
  4 15  1  0
 15 16  1  0
 16 17  1  0
 16 20  1  0
 20 21  2  0
 20 22  1  0
  4 24  1  0
 24 25  1  0
 25 26  1  0
 25 27  1  0
 25 28  1  0
  4  5  1  0
  6  5  1  0
  6  7  1  0
  7  8  1  0
  8  9  1  0
  9 10  1  0
  9  1  1  0
  6  2  1  0
 13 14  1  0
 17 18  1  0
 17 19  1  0
 22 23  1  0
 10 11  1  0
M  CHG 1  25   1
M  END
> <minimizedAffinity>
-0.39654

> <CNNscore>
0.4586290121

> <CNNaffinity>
6.4433369637

> <CNN_VS>
2.9551012516

> <CNNaffinity_variance>
0.4160119295

$$$$



 28 29  0  0  0  0  0  0  0  0999 V2000
    0.0597   25.5997   25.7425 C   0  0  0  0  0  0  0  0  0  0  0  0
    0.0964   25.0594   27.1992 C   0  0  0  0  0  0  0  0  0  0  0  0
    1.4537   24.8871   27.6961 O   0  0  0  0  0  0  0  0  0  0  0  0
    1.6121   25.6350   28.9402 C   0  0  0  0  0  0  0  0  0  0  0  0
    0.1608   25.7690   29.4520 C   0  0  0  0  0  0  0  0  0  0  0  0
   -0.6675   25.9327   28.1983 C   0  0  0  0  0  0  0  0  0  0  0  0
   -0.7193   27.3044   27.8242 O   0  0  0  0  0  0  0  0  0  0  0  0
   -1.3550   27.5326   26.5593 C   0  0  0  0  0  0  0  0  0  0  0  0
   -1.2900   26.3410   25.5896 C   0  0  0  0  0  0  0  0  0  0  0  0
   -1.5591   26.7150   24.2418 O   0  0  0  0  0  0  0  0  0  0  0  0
   -0.8806   27.3377   23.9374 H   0  0  0  0  0  0  0  0  0  0  0  0
    1.0161   27.5509   24.5949 C   0  0  0  0  0  0  0  0  0  0  0  0
    1.2770   26.3996   25.4496 N   0  0  0  0  0  0  0  0  0  0  0  0
    1.6662   26.7324   26.3317 H   0  0  0  0  0  0  0  0  0  0  0  0
    2.2838   26.9849   28.5875 C   0  0  0  0  0  0  0  0  0  0  0  0
    3.5400   26.9538   27.7048 C   0  0  0  0  0  0  0  0  0  0  0  0
    3.3111   27.5734   26.3905 N   0  0  0  0  0  0  0  0  0  0  0  0
    2.5864   27.0565   25.8925 H   0  0  0  0  0  0  0  0  0  0  0  0
    4.1758   27.5531   25.8498 H   0  0  0  0  0  0  0  0  0  0  0  0
    4.0270   25.5034   27.5814 C   0  0  0  0  0  0  0  0  0  0  0  0
    4.5012   24.8542   28.5020 O   0  0  0  0  0  0  0  0  0  0  0  0
    3.9171   24.9856   26.3432 O   0  0  0  0  0  0  0  0  0  0  0  0
    3.5506   25.5001   25.6511 H   0  0  0  0  0  0  0  0  0  0  0  0
    2.4162   24.7577   29.9574 C   0  0  0  0  0  0  0  0  0  0  0  0
    2.6122   25.2598   31.4243 N   0  0  0  0  0  0  0  0  0  0  0  0
    1.7907   26.4972   31.7550 C   0  0  0  0  0  0  0  0  0  0  0  0
    2.1211   24.1338   32.3489 C   0  0  0  0  0  0  0  0  0  0  0  0
    4.0754   25.5252   31.7609 C   0  0  0  0  0  0  0  0  0  0  0  0
 12 13  1  0
  1 13  1  0
  1  2  1  0
  2  3  1  0
  3  4  1  0
  4 15  1  0
 15 16  1  0
 16 17  1  0
 16 20  1  0
 20 21  2  0
 20 22  1  0
  4 24  1  0
 24 25  1  0
 25 26  1  0
 25 27  1  0
 25 28  1  0
  4  5  1  0
  6  5  1  0
  6  7  1  0
  7  8  1  0
  8  9  1  0
  9 10  1  0
  9  1  1  0
  6  2  1  0
 13 14  1  0
 17 18  1  0
 17 19  1  0
 22 23  1  0
 10 11  1  0
M  CHG 1  25   1
M  END
> <minimizedAffinity>
-1.48804

> <CNNscore>
0.2413035482

> <CNNaffinity>
3.5772902966

> <CNN_VS>
0.8632128239

> <CNNaffinity_variance>
0.0539558865

$$$$



 28 29  0  0  0  0  0  0  0  0999 V2000
   -6.0331   15.6815   25.6801 C   0  0  0  0  0  0  0  0  0  0  0  0
   -7.4848   15.4673   25.1682 C   0  0  0  0  0  0  0  0  0  0  0  0
   -7.7602   16.2083   23.9460 O   0  0  0  0  0  0  0  0  0  0  0  0
   -8.2358   15.2866   22.9180 C   0  0  0  0  0  0  0  0  0  0  0  0
   -8.7777   14.0976   23.7417 C   0  0  0  0  0  0  0  0  0  0  0  0
   -7.8396   13.9983   24.9227 C   0  0  0  0  0  0  0  0  0  0  0  0
   -6.7148   13.1950   24.5852 O   0  0  0  0  0  0  0  0  0  0  0  0
   -5.6979   13.1745   25.5960 C   0  0  0  0  0  0  0  0  0  0  0  0
   -5.6720   14.4190   26.4988 C   0  0  0  0  0  0  0  0  0  0  0  0
   -4.4435   14.5584   27.2060 O   0  0  0  0  0  0  0  0  0  0  0  0
   -3.7181   14.6786   26.5734 H   0  0  0  0  0  0  0  0  0  0  0  0
   -4.0202   16.8793   24.9367 C   0  0  0  0  0  0  0  0  0  0  0  0
   -5.1225   16.0068   24.5521 N   0  0  0  0  0  0  0  0  0  0  0  0
   -4.7349   15.1367   24.1872 H   0  0  0  0  0  0  0  0  0  0  0  0
   -7.0267   14.9318   22.0182 C   0  0  0  0  0  0  0  0  0  0  0  0
   -6.9882   15.5209   20.6005 C   0  0  0  0  0  0  0  0  0  0  0  0
   -6.0682   14.7865   19.7184 N   0  0  0  0  0  0  0  0  0  0  0  0
   -5.1202   14.8468   20.0900 H   0  0  0  0  0  0  0  0  0  0  0  0
   -6.0939   15.1953   18.7843 H   0  0  0  0  0  0  0  0  0  0  0  0
   -6.6345   17.0118   20.6896 C   0  0  0  0  0  0  0  0  0  0  0  0
   -6.9458   17.8460   19.8522 O   0  0  0  0  0  0  0  0  0  0  0  0
   -5.9116   17.3457   21.7755 O   0  0  0  0  0  0  0  0  0  0  0  0
   -5.6834   16.6910   22.4058 H   0  0  0  0  0  0  0  0  0  0  0  0
   -9.4343   15.9506   22.1605 C   0  0  0  0  0  0  0  0  0  0  0  0
  -10.4264   15.0559   21.3497 N   0  0  0  0  0  0  0  0  0  0  0  0
  -11.7700   14.8654   22.0379 C   0  0  0  0  0  0  0  0  0  0  0  0
  -10.6998   15.7845   20.0237 C   0  0  0  0  0  0  0  0  0  0  0  0
   -9.8390   13.6903   21.0108 C   0  0  0  0  0  0  0  0  0  0  0  0
 12 13  1  0
  1 13  1  0
  1  2  1  0
  2  3  1  0
  3  4  1  0
  4 15  1  0
 15 16  1  0
 16 17  1  0
 16 20  1  0
 20 21  2  0
 20 22  1  0
  4 24  1  0
 24 25  1  0
 25 26  1  0
 25 27  1  0
 25 28  1  0
  4  5  1  0
  6  5  1  0
  6  7  1  0
  7  8  1  0
  8  9  1  0
  9 10  1  0
  9  1  1  0
  6  2  1  0
 13 14  1  0
 17 18  1  0
 17 19  1  0
 22 23  1  0
 10 11  1  0
M  CHG 1  25   1
M  END
> <minimizedAffinity>
6.61493

> <CNNscore>
0.1670650542

> <CNNaffinity>
5.3444733620

> <CNN_VS>
0.8928747177

> <CNNaffinity_variance>
0.0498445816

$$$$



 28 29  0  0  0  0  0  0  0  0999 V2000
   -5.6837   16.3324   20.1573 C   0  0  0  0  0  0  0  0  0  0  0  0
   -6.5271   15.2650   20.9086 C   0  0  0  0  0  0  0  0  0  0  0  0
   -7.7080   15.8324   21.5426 O   0  0  0  0  0  0  0  0  0  0  0  0
   -8.8955   15.1198   21.0794 C   0  0  0  0  0  0  0  0  0  0  0  0
   -8.3258   13.7615   20.6140 C   0  0  0  0  0  0  0  0  0  0  0  0
   -6.9776   14.1013   20.0214 C   0  0  0  0  0  0  0  0  0  0  0  0
   -7.1235   14.4595   18.6521 O   0  0  0  0  0  0  0  0  0  0  0  0
   -5.9154   14.9464   18.0525 C   0  0  0  0  0  0  0  0  0  0  0  0
   -4.9217   15.5762   19.0426 C   0  0  0  0  0  0  0  0  0  0  0  0
   -3.9460   16.3896   18.3984 O   0  0  0  0  0  0  0  0  0  0  0  0
   -4.3852   17.1343   17.9586 H   0  0  0  0  0  0  0  0  0  0  0  0
   -7.2351   17.1876   18.4541 C   0  0  0  0  0  0  0  0  0  0  0  0
   -6.5432   17.4580   19.7079 N   0  0  0  0  0  0  0  0  0  0  0  0
   -7.2401   17.6417   20.4297 H   0  0  0  0  0  0  0  0  0  0  0  0
   -9.5276   15.9613   19.9436 C   0  0  0  0  0  0  0  0  0  0  0  0
  -10.6159   16.9767   20.3215 C   0  0  0  0  0  0  0  0  0  0  0  0
  -11.3535   17.4640   19.1458 N   0  0  0  0  0  0  0  0  0  0  0  0
  -10.7100   17.9409   18.5143 H   0  0  0  0  0  0  0  0  0  0  0  0
  -12.0800   18.1141   19.4456 H   0  0  0  0  0  0  0  0  0  0  0  0
   -9.9743   18.1230   21.1154 C   0  0  0  0  0  0  0  0  0  0  0  0
   -8.7768   18.3672   21.1289 O   0  0  0  0  0  0  0  0  0  0  0  0
  -10.8454   18.8497   21.8410 O   0  0  0  0  0  0  0  0  0  0  0  0
  -11.7597   18.6461   21.8167 H   0  0  0  0  0  0  0  0  0  0  0  0
   -9.8410   14.8670   22.3014 C   0  0  0  0  0  0  0  0  0  0  0  0
  -11.3054   14.3791   22.0569 N   0  0  0  0  0  0  0  0  0  0  0  0
  -12.3596   15.3451   22.5771 C   0  0  0  0  0  0  0  0  0  0  0  0
  -11.4942   14.2852   20.5340 C   0  0  0  0  0  0  0  0  0  0  0  0
  -11.5648   12.9937   22.6383 C   0  0  0  0  0  0  0  0  0  0  0  0
 12 13  1  0
  1 13  1  0
  1  2  1  0
  2  3  1  0
  3  4  1  0
  4 15  1  0
 15 16  1  0
 16 17  1  0
 16 20  1  0
 20 21  2  0
 20 22  1  0
  4 24  1  0
 24 25  1  0
 25 26  1  0
 25 27  1  0
 25 28  1  0
  4  5  1  0
  6  5  1  0
  6  7  1  0
  7  8  1  0
  8  9  1  0
  9 10  1  0
  9  1  1  0
  6  2  1  0
 13 14  1  0
 17 18  1  0
 17 19  1  0
 22 23  1  0
 10 11  1  0
M  CHG 1  25   1
M  END
> <minimizedAffinity>
-3.11063

> <CNNscore>
0.1527140439

> <CNNaffinity>
4.8654198647

> <CNN_VS>
0.7430179715

> <CNNaffinity_variance>
0.0304934178

$$$$



 28 29  0  0  0  0  0  0  0  0999 V2000
   -4.1379   22.2116   12.7075 C   0  0  0  0  0  0  0  0  0  0  0  0
   -4.8896   21.6323   11.4768 C   0  0  0  0  0  0  0  0  0  0  0  0
   -6.0919   22.3858   11.1523 O   0  0  0  0  0  0  0  0  0  0  0  0
   -6.0290   22.8213    9.7599 C   0  0  0  0  0  0  0  0  0  0  0  0
   -5.0417   21.8164    9.1262 C   0  0  0  0  0  0  0  0  0  0  0  0
   -4.0278   21.5469   10.2142 C   0  0  0  0  0  0  0  0  0  0  0  0
   -2.9940   22.5235   10.1696 O   0  0  0  0  0  0  0  0  0  0  0  0
   -2.0714   22.4355   11.2638 C   0  0  0  0  0  0  0  0  0  0  0  0
   -2.6542   21.8050   12.5394 C   0  0  0  0  0  0  0  0  0  0  0  0
   -1.8748   22.0885   13.6973 O   0  0  0  0  0  0  0  0  0  0  0  0
   -1.8692   23.0453   13.8570 H   0  0  0  0  0  0  0  0  0  0  0  0
   -3.3895   24.4971   12.2018 C   0  0  0  0  0  0  0  0  0  0  0  0
   -4.4009   23.6675   12.8445 N   0  0  0  0  0  0  0  0  0  0  0  0
   -5.3060   23.8744   12.4222 H   0  0  0  0  0  0  0  0  0  0  0  0
   -5.5283   24.2865    9.7544 C   0  0  0  0  0  0  0  0  0  0  0  0
   -4.9264   24.8357    8.4527 C   0  0  0  0  0  0  0  0  0  0  0  0
   -3.5100   25.2015    8.6064 N   0  0  0  0  0  0  0  0  0  0  0  0
   -3.4231   25.9380    9.3067 H   0  0  0  0  0  0  0  0  0  0  0  0
   -3.1465   25.5361    7.7141 H   0  0  0  0  0  0  0  0  0  0  0  0
   -5.7780   26.0178    7.9695 C   0  0  0  0  0  0  0  0  0  0  0  0
   -6.9991   26.0500    8.0089 O   0  0  0  0  0  0  0  0  0  0  0  0
   -5.0666   27.0404    7.4581 O   0  0  0  0  0  0  0  0  0  0  0  0
   -4.1309   26.9960    7.4372 H   0  0  0  0  0  0  0  0  0  0  0  0
   -7.4348   22.6147    9.1027 C   0  0  0  0  0  0  0  0  0  0  0  0
   -7.7362   21.2948    8.3221 N   0  0  0  0  0  0  0  0  0  0  0  0
   -6.5796   20.8308    7.4490 C   0  0  0  0  0  0  0  0  0  0  0  0
   -7.9717   20.1996    9.3753 C   0  0  0  0  0  0  0  0  0  0  0  0
   -8.9978   21.3933    7.4718 C   0  0  0  0  0  0  0  0  0  0  0  0
 12 13  1  0
  1 13  1  0
  1  2  1  0
  2  3  1  0
  3  4  1  0
  4 15  1  0
 15 16  1  0
 16 17  1  0
 16 20  1  0
 20 21  2  0
 20 22  1  0
  4 24  1  0
 24 25  1  0
 25 26  1  0
 25 27  1  0
 25 28  1  0
  4  5  1  0
  6  5  1  0
  6  7  1  0
  7  8  1  0
  8  9  1  0
  9 10  1  0
  9  1  1  0
  6  2  1  0
 13 14  1  0
 17 18  1  0
 17 19  1  0
 22 23  1  0
 10 11  1  0
M  CHG 1  25   1
M  END
> <minimizedAffinity>
-0.27521

> <CNNscore>
0.1313867122

> <CNNaffinity>
3.1870756149

> <CNN_VS>
0.4187393785

> <CNNaffinity_variance>
1.0865732431

$$$$



 28 29  0  0  0  0  0  0  0  0999 V2000
   -7.8868   13.0532   20.5051 C   0  0  0  0  0  0  0  0  0  0  0  0
   -8.9466   13.3133   21.6117 C   0  0  0  0  0  0  0  0  0  0  0  0
   -8.8385   14.6468   22.1851 O   0  0  0  0  0  0  0  0  0  0  0  0
  -10.1249   15.3283   22.0708 C   0  0  0  0  0  0  0  0  0  0  0  0
  -11.1271   14.1596   21.9457 C   0  0  0  0  0  0  0  0  0  0  0  0
  -10.3896   13.1151   21.1397 C   0  0  0  0  0  0  0  0  0  0  0  0
  -10.5667   13.3581   19.7490 O   0  0  0  0  0  0  0  0  0  0  0  0
   -9.7743   12.5067   18.9104 C   0  0  0  0  0  0  0  0  0  0  0  0
   -8.4909   11.9772   19.5713 C   0  0  0  0  0  0  0  0  0  0  0  0
   -7.5488   11.4839   18.6238 O   0  0  0  0  0  0  0  0  0  0  0  0
   -7.2652   12.2074   18.0432 H   0  0  0  0  0  0  0  0  0  0  0  0
   -6.2819   14.2032   19.0419 C   0  0  0  0  0  0  0  0  0  0  0  0
   -7.4857   14.3271   19.8541 N   0  0  0  0  0  0  0  0  0  0  0  0
   -8.2499   14.6398   19.2553 H   0  0  0  0  0  0  0  0  0  0  0  0
  -10.0579   16.2386   20.8200 C   0  0  0  0  0  0  0  0  0  0  0  0
   -9.6487   17.7053   21.0192 C   0  0  0  0  0  0  0  0  0  0  0  0
  -10.6229   18.6385   20.4330 N   0  0  0  0  0  0  0  0  0  0  0  0
  -10.6813   18.4815   19.4269 H   0  0  0  0  0  0  0  0  0  0  0  0
  -10.3245   19.5976   20.6107 H   0  0  0  0  0  0  0  0  0  0  0  0
   -8.2383   17.9112   20.4498 C   0  0  0  0  0  0  0  0  0  0  0  0
   -7.8055   17.3445   19.4571 O   0  0  0  0  0  0  0  0  0  0  0  0
   -7.4753   18.7670   21.1561 O   0  0  0  0  0  0  0  0  0  0  0  0
   -7.8262   19.1913   21.9143 H   0  0  0  0  0  0  0  0  0  0  0  0
  -10.4145   16.0871   23.4093 C   0  0  0  0  0  0  0  0  0  0  0  0
  -11.8808   16.4950   23.7641 N   0  0  0  0  0  0  0  0  0  0  0  0
  -12.4974   17.4642   22.7663 C   0  0  0  0  0  0  0  0  0  0  0  0
  -12.7227   15.2092   23.7210 C   0  0  0  0  0  0  0  0  0  0  0  0
  -12.0023   17.0768   25.1682 C   0  0  0  0  0  0  0  0  0  0  0  0
 12 13  1  0
  1 13  1  0
  1  2  1  0
  2  3  1  0
  3  4  1  0
  4 15  1  0
 15 16  1  0
 16 17  1  0
 16 20  1  0
 20 21  2  0
 20 22  1  0
  4 24  1  0
 24 25  1  0
 25 26  1  0
 25 27  1  0
 25 28  1  0
  4  5  1  0
  6  5  1  0
  6  7  1  0
  7  8  1  0
  8  9  1  0
  9 10  1  0
  9  1  1  0
  6  2  1  0
 13 14  1  0
 17 18  1  0
 17 19  1  0
 22 23  1  0
 10 11  1  0
M  CHG 1  25   1
M  END
> <minimizedAffinity>
2.47708

> <CNNscore>
0.1271655709

> <CNNaffinity>
5.5895252228

> <CNN_VS>
0.7107951641

> <CNNaffinity_variance>
0.0822397470

$$$$



 28 29  0  0  0  0  0  0  0  0999 V2000
   -6.0746   10.8096   27.3735 C   0  0  0  0  0  0  0  0  0  0  0  0
   -7.1816   10.3352   28.3556 C   0  0  0  0  0  0  0  0  0  0  0  0
   -6.6595   10.0312   29.6798 O   0  0  0  0  0  0  0  0  0  0  0  0
   -7.3862   10.8117   30.6775 C   0  0  0  0  0  0  0  0  0  0  0  0
   -8.7174   11.1342   29.9636 C   0  0  0  0  0  0  0  0  0  0  0  0
   -8.3303   11.3347   28.5164 C   0  0  0  0  0  0  0  0  0  0  0  0
   -7.9377   12.6850   28.2997 O   0  0  0  0  0  0  0  0  0  0  0  0
   -7.4066   12.9270   26.9899 C   0  0  0  0  0  0  0  0  0  0  0  0
   -6.7817   11.6932   26.3180 C   0  0  0  0  0  0  0  0  0  0  0  0
   -5.9285   12.0340   25.2296 O   0  0  0  0  0  0  0  0  0  0  0  0
   -5.1821   12.5604   25.5565 H   0  0  0  0  0  0  0  0  0  0  0  0
   -4.7464   10.8838   29.4398 C   0  0  0  0  0  0  0  0  0  0  0  0
   -4.9571   11.4506   28.1137 N   0  0  0  0  0  0  0  0  0  0  0  0
   -4.1007   11.3346   27.5718 H   0  0  0  0  0  0  0  0  0  0  0  0
   -6.5283   12.0582   31.0059 C   0  0  0  0  0  0  0  0  0  0  0  0
   -5.7356   12.0592   32.3212 C   0  0  0  0  0  0  0  0  0  0  0  0
   -4.9786   13.3057   32.5127 N   0  0  0  0  0  0  0  0  0  0  0  0
   -4.3003   13.4109   31.7582 H   0  0  0  0  0  0  0  0  0  0  0  0
   -4.4896   13.2725   33.4073 H   0  0  0  0  0  0  0  0  0  0  0  0
   -4.8280   10.8220   32.3573 C   0  0  0  0  0  0  0  0  0  0  0  0
   -5.2334    9.6691   32.3754 O   0  0  0  0  0  0  0  0  0  0  0  0
   -3.5113   11.1019   32.3955 O   0  0  0  0  0  0  0  0  0  0  0  0
   -3.2211   11.9927   32.3808 H   0  0  0  0  0  0  0  0  0  0  0  0
   -7.6945    9.8949   31.9085 C   0  0  0  0  0  0  0  0  0  0  0  0
   -8.7119    8.7181   31.7595 N   0  0  0  0  0  0  0  0  0  0  0  0
   -9.0600    8.3988   30.3132 C   0  0  0  0  0  0  0  0  0  0  0  0
   -8.0347    7.4682   32.3453 C   0  0  0  0  0  0  0  0  0  0  0  0
   -9.9978    8.9540   32.5440 C   0  0  0  0  0  0  0  0  0  0  0  0
 12 13  1  0
  1 13  1  0
  1  2  1  0
  2  3  1  0
  3  4  1  0
  4 15  1  0
 15 16  1  0
 16 17  1  0
 16 20  1  0
 20 21  2  0
 20 22  1  0
  4 24  1  0
 24 25  1  0
 25 26  1  0
 25 27  1  0
 25 28  1  0
  4  5  1  0
  6  5  1  0
  6  7  1  0
  7  8  1  0
  8  9  1  0
  9 10  1  0
  9  1  1  0
  6  2  1  0
 13 14  1  0
 17 18  1  0
 17 19  1  0
 22 23  1  0
 10 11  1  0
M  CHG 1  25   1
M  END
> <minimizedAffinity>
6.92391

> <CNNscore>
0.1247519776

> <CNNaffinity>
3.4531123638

> <CNN_VS>
0.4307825863

> <CNNaffinity_variance>
0.2181233019

$$$$



 28 29  0  0  0  0  0  0  0  0999 V2000
   -8.7763   12.8644   21.0864 C   0  0  0  0  0  0  0  0  0  0  0  0
   -9.4337   14.1684   21.6182 C   0  0  0  0  0  0  0  0  0  0  0  0
   -8.5890   15.3378   21.4247 O   0  0  0  0  0  0  0  0  0  0  0  0
   -9.3301   16.3523   20.6803 C   0  0  0  0  0  0  0  0  0  0  0  0
  -10.8032   15.9745   20.9511 C   0  0  0  0  0  0  0  0  0  0  0  0
  -10.8024   14.4638   20.9987 C   0  0  0  0  0  0  0  0  0  0  0  0
  -10.9537   13.9348   19.6866 O   0  0  0  0  0  0  0  0  0  0  0  0
  -10.8081   12.5098   19.6200 C   0  0  0  0  0  0  0  0  0  0  0  0
   -9.9389   11.9055   20.7351 C   0  0  0  0  0  0  0  0  0  0  0  0
   -9.4888   10.5895   20.4279 O   0  0  0  0  0  0  0  0  0  0  0  0
   -8.9230   10.6170   19.6405 H   0  0  0  0  0  0  0  0  0  0  0  0
   -7.4924   12.0009   19.1772 C   0  0  0  0  0  0  0  0  0  0  0  0
   -7.8286   13.1678   19.9831 N   0  0  0  0  0  0  0  0  0  0  0  0
   -8.2518   13.8698   19.3761 H   0  0  0  0  0  0  0  0  0  0  0  0
   -8.9116   16.2349   19.1942 C   0  0  0  0  0  0  0  0  0  0  0  0
   -7.5108   16.7260   18.8008 C   0  0  0  0  0  0  0  0  0  0  0  0
   -7.4886   17.3238   17.4570 N   0  0  0  0  0  0  0  0  0  0  0  0
   -7.7607   16.6224   16.7683 H   0  0  0  0  0  0  0  0  0  0  0  0
   -6.5474   17.6575   17.2488 H   0  0  0  0  0  0  0  0  0  0  0  0
   -6.5196   15.5612   18.9301 C   0  0  0  0  0  0  0  0  0  0  0  0
   -6.1447   14.8674   17.9963 O   0  0  0  0  0  0  0  0  0  0  0  0
   -6.0968   15.3307   20.1876 O   0  0  0  0  0  0  0  0  0  0  0  0
   -6.3961   15.8744   20.8896 H   0  0  0  0  0  0  0  0  0  0  0  0
   -9.0526   17.7527   21.3228 C   0  0  0  0  0  0  0  0  0  0  0  0
   -7.6430   18.4088   21.1657 N   0  0  0  0  0  0  0  0  0  0  0  0
   -7.0192   18.1817   19.7966 C   0  0  0  0  0  0  0  0  0  0  0  0
   -7.8385   19.9256   21.3245 C   0  0  0  0  0  0  0  0  0  0  0  0
   -6.6640   17.9565   22.2435 C   0  0  0  0  0  0  0  0  0  0  0  0
 12 13  1  0
  1 13  1  0
  1  2  1  0
  2  3  1  0
  3  4  1  0
  4 15  1  0
 15 16  1  0
 16 17  1  0
 16 20  1  0
 20 21  2  0
 20 22  1  0
  4 24  1  0
 24 25  1  0
 25 26  1  0
 25 27  1  0
 25 28  1  0
  4  5  1  0
  6  5  1  0
  6  7  1  0
  7  8  1  0
  8  9  1  0
  9 10  1  0
  9  1  1  0
  6  2  1  0
 13 14  1  0
 17 18  1  0
 17 19  1  0
 22 23  1  0
 10 11  1  0
M  CHG 1  25   1
M  END
> <minimizedAffinity>
-0.56218

> <CNNscore>
0.1219228208

> <CNNaffinity>
5.4885406494

> <CNN_VS>
0.6691783667

> <CNNaffinity_variance>
0.4641784132

$$$$
