


 24 23  0  0  0  0  0  0  0  0999 V2000
   -1.9630    6.1544   18.9616 C   0  0  0  0  0  0  0  0  0  0  0  0
   -0.8899    5.0299   19.2011 C   0  0  0  0  0  0  0  0  0  0  0  0
   -1.1532    4.3477   20.5486 C   0  0  0  0  0  0  0  0  0  0  0  0
    0.5094    5.6761   19.2376 C   0  0  0  0  0  0  0  0  0  0  0  0
   -1.0281    4.0542   17.9735 C   0  0  0  0  0  0  0  0  0  0  0  0
   -2.2623    3.1068   17.6968 C   0  0  0  0  0  0  0  0  0  0  0  0
   -1.8138    1.6470   17.5341 C   0  0  0  0  0  0  0  0  0  0  0  0
   -2.8304    3.5703   16.3366 C   0  0  0  0  0  0  0  0  0  0  0  0
   -3.3203    3.2588   18.8431 C   0  0  0  0  0  0  0  0  0  0  0  0
   -4.8437    3.5261   18.6059 C   0  0  0  0  0  0  0  0  0  0  0  0
   -5.6120    2.3000   18.0992 C   0  0  0  0  0  0  0  0  0  0  0  0
   -5.4477    3.9135   19.9816 C   0  0  0  0  0  0  0  0  0  0  0  0
   -5.0923    4.7202   17.6661 C   0  0  0  0  0  0  0  0  0  0  0  0
   -1.8233    6.9964   17.6845 C   0  0  0  0  0  0  0  0  0  0  0  0
   -2.0364    8.4975   17.9268 C   0  0  0  0  0  0  0  0  0  0  0  0
   -2.7000    8.8061   19.2720 C   0  0  0  0  0  0  0  0  0  0  0  0
   -3.0479   10.2881   19.4527 C   0  0  0  0  0  0  0  0  0  0  0  0
   -2.7567   11.1363   18.2121 C   0  0  0  0  0  0  0  0  0  0  0  0
   -1.8724   12.3538   18.5061 C   0  0  0  0  0  0  0  0  0  0  0  0
   -2.5081   13.6822   18.0872 C   0  0  0  0  0  0  0  0  0  0  0  0
   -1.5777   14.8851   18.2808 C   0  0  0  0  0  0  0  0  0  0  0  0
   -2.2531   16.2253   17.9774 C   0  0  0  0  0  0  0  0  0  0  0  0
   -4.2185   17.3820   16.8321 C   0  0  0  0  0  0  0  0  0  0  0  0
   -3.4001   16.1077   16.9704 C   0  0  0  0  0  0  0  0  0  0  0  0
 23 24  1  0
 24 22  1  0
 22 21  1  0
 21 20  1  0
 20 19  1  0
 19 18  1  0
 18 17  1  0
 17 16  1  0
 16 15  1  0
 15 14  1  0
 14  1  1  0
  1  2  1  0
  2  3  1  0
  2  4  1  0
  2  5  1  0
  5  6  1  0
  6  7  1  0
  6  8  1  0
  6  9  1  0
  9 10  1  0
 10 11  1  0
 10 12  1  0
 10 13  1  0
M  END
> <minimizedAffinity>
-6.65691

> <CNNscore>
0.7910650969

> <CNNaffinity>
6.7632813454

> <CNN_VS>
5.3501958847

> <CNNaffinity_variance>
0.5692351460

$$$$



 24 23  0  0  0  0  0  0  0  0999 V2000
   -1.9271    7.4238   17.7161 C   0  0  0  0  0  0  0  0  0  0  0  0
   -2.0722    5.8743   17.9428 C   0  0  0  0  0  0  0  0  0  0  0  0
   -0.9183    5.3735   18.8192 C   0  0  0  0  0  0  0  0  0  0  0  0
   -2.0026    5.1622   16.5771 C   0  0  0  0  0  0  0  0  0  0  0  0
   -3.4860    5.6813   18.6075 C   0  0  0  0  0  0  0  0  0  0  0  0
   -4.3467    4.3571   18.5507 C   0  0  0  0  0  0  0  0  0  0  0  0
   -3.4478    3.1176   18.4317 C   0  0  0  0  0  0  0  0  0  0  0  0
   -5.1643    4.4625   17.2437 C   0  0  0  0  0  0  0  0  0  0  0  0
   -5.2799    4.2721   19.8069 C   0  0  0  0  0  0  0  0  0  0  0  0
   -5.6725    2.9377   20.5238 C   0  0  0  0  0  0  0  0  0  0  0  0
   -4.6442    2.4705   21.5605 C   0  0  0  0  0  0  0  0  0  0  0  0
   -6.9991    3.2118   21.2803 C   0  0  0  0  0  0  0  0  0  0  0  0
   -5.9623    1.7985   19.5292 C   0  0  0  0  0  0  0  0  0  0  0  0
   -2.2532    8.3399   18.9052 C   0  0  0  0  0  0  0  0  0  0  0  0
   -2.4475    9.8078   18.4986 C   0  0  0  0  0  0  0  0  0  0  0  0
   -1.7057   10.7918   19.4077 C   0  0  0  0  0  0  0  0  0  0  0  0
   -1.8957   12.2575   19.0007 C   0  0  0  0  0  0  0  0  0  0  0  0
   -3.0916   12.4800   18.0715 C   0  0  0  0  0  0  0  0  0  0  0  0
   -3.2479   13.9386   17.6259 C   0  0  0  0  0  0  0  0  0  0  0  0
   -2.0657   14.8261   18.0250 C   0  0  0  0  0  0  0  0  0  0  0  0
   -2.3664   16.3244   17.9026 C   0  0  0  0  0  0  0  0  0  0  0  0
   -3.2434   16.6670   16.6953 C   0  0  0  0  0  0  0  0  0  0  0  0
   -3.7354   18.8129   15.4047 C   0  0  0  0  0  0  0  0  0  0  0  0
   -3.8029   18.0912   16.7416 C   0  0  0  0  0  0  0  0  0  0  0  0
 23 24  1  0
 24 22  1  0
 22 21  1  0
 21 20  1  0
 20 19  1  0
 19 18  1  0
 18 17  1  0
 17 16  1  0
 16 15  1  0
 15 14  1  0
 14  1  1  0
  1  2  1  0
  2  3  1  0
  2  4  1  0
  2  5  1  0
  5  6  1  0
  6  7  1  0
  6  8  1  0
  6  9  1  0
  9 10  1  0
 10 11  1  0
 10 12  1  0
 10 13  1  0
M  END
> <minimizedAffinity>
-7.00737

> <CNNscore>
0.7580505013

> <CNNaffinity>
6.7478022575

> <CNN_VS>
5.1151747704

> <CNNaffinity_variance>
0.6749196053

$$$$



 24 23  0  0  0  0  0  0  0  0999 V2000
   -1.7930    6.5147   19.3991 C   0  0  0  0  0  0  0  0  0  0  0  0
   -0.9324    5.2875   18.9232 C   0  0  0  0  0  0  0  0  0  0  0  0
   -1.0534    4.1492   19.9430 C   0  0  0  0  0  0  0  0  0  0  0  0
    0.5451    5.7192   18.8350 C   0  0  0  0  0  0  0  0  0  0  0  0
   -1.4950    4.9105   17.5021 C   0  0  0  0  0  0  0  0  0  0  0  0
   -2.3389    3.6163   17.1699 C   0  0  0  0  0  0  0  0  0  0  0  0
   -1.6285    2.3494   17.6686 C   0  0  0  0  0  0  0  0  0  0  0  0
   -2.3803    3.5461   15.6269 C   0  0  0  0  0  0  0  0  0  0  0  0
   -3.7776    3.7459   17.7780 C   0  0  0  0  0  0  0  0  0  0  0  0
   -4.3418    2.8242   18.9098 C   0  0  0  0  0  0  0  0  0  0  0  0
   -4.6345    3.5663   20.2189 C   0  0  0  0  0  0  0  0  0  0  0  0
   -5.6884    2.2545   18.3907 C   0  0  0  0  0  0  0  0  0  0  0  0
   -3.4328    1.6136   19.1906 C   0  0  0  0  0  0  0  0  0  0  0  0
   -2.5492    7.3021   18.3185 C   0  0  0  0  0  0  0  0  0  0  0  0
   -1.6691    8.3341   17.5989 C   0  0  0  0  0  0  0  0  0  0  0  0
   -2.0896    9.7819   17.8676 C   0  0  0  0  0  0  0  0  0  0  0  0
   -2.0169   10.1714   19.3485 C   0  0  0  0  0  0  0  0  0  0  0  0
   -1.9184   11.6821   19.5753 C   0  0  0  0  0  0  0  0  0  0  0  0
   -2.4673   12.5062   18.4047 C   0  0  0  0  0  0  0  0  0  0  0  0
   -1.8280   13.8923   18.2847 C   0  0  0  0  0  0  0  0  0  0  0  0
   -2.7773   14.9476   17.7055 C   0  0  0  0  0  0  0  0  0  0  0  0
   -2.2949   16.3828   17.9327 C   0  0  0  0  0  0  0  0  0  0  0  0
   -4.3395   16.9001   16.4959 C   0  0  0  0  0  0  0  0  0  0  0  0
   -3.3031   17.4379   17.4704 C   0  0  0  0  0  0  0  0  0  0  0  0
 23 24  1  0
 24 22  1  0
 22 21  1  0
 21 20  1  0
 20 19  1  0
 19 18  1  0
 18 17  1  0
 17 16  1  0
 16 15  1  0
 15 14  1  0
 14  1  1  0
  1  2  1  0
  2  3  1  0
  2  4  1  0
  2  5  1  0
  5  6  1  0
  6  7  1  0
  6  8  1  0
  6  9  1  0
  9 10  1  0
 10 11  1  0
 10 12  1  0
 10 13  1  0
M  END
> <minimizedAffinity>
-6.59668

> <CNNscore>
0.7144387960

> <CNNaffinity>
6.6706252098

> <CNN_VS>
4.7657532692

> <CNNaffinity_variance>
0.5650185347

$$$$



 24 23  0  0  0  0  0  0  0  0999 V2000
   -1.7051    7.6218   19.6756 C   0  0  0  0  0  0  0  0  0  0  0  0
   -1.5507    6.1914   19.0406 C   0  0  0  0  0  0  0  0  0  0  0  0
   -0.1175    5.6888   19.2498 C   0  0  0  0  0  0  0  0  0  0  0  0
   -1.8269    6.2859   17.5267 C   0  0  0  0  0  0  0  0  0  0  0  0
   -2.6324    5.2992   19.7560 C   0  0  0  0  0  0  0  0  0  0  0  0
   -2.4419    3.7828   20.1582 C   0  0  0  0  0  0  0  0  0  0  0  0
   -1.1454    3.5806   20.9563 C   0  0  0  0  0  0  0  0  0  0  0  0
   -2.2836    3.0267   18.8199 C   0  0  0  0  0  0  0  0  0  0  0  0
   -3.6931    3.2806   20.9573 C   0  0  0  0  0  0  0  0  0  0  0  0
   -4.9899    2.7080   20.2945 C   0  0  0  0  0  0  0  0  0  0  0  0
   -4.9028    1.2140   19.9622 C   0  0  0  0  0  0  0  0  0  0  0  0
   -6.1339    2.8856   21.3275 C   0  0  0  0  0  0  0  0  0  0  0  0
   -5.4064    3.4964   19.0392 C   0  0  0  0  0  0  0  0  0  0  0  0
   -3.1105    8.0362   20.1367 C   0  0  0  0  0  0  0  0  0  0  0  0
   -3.3176    9.5576   20.1437 C   0  0  0  0  0  0  0  0  0  0  0  0
   -2.9237   10.2290   18.8250 C   0  0  0  0  0  0  0  0  0  0  0  0
   -1.6679   11.1008   18.9377 C   0  0  0  0  0  0  0  0  0  0  0  0
   -1.9335   12.5857   18.6772 C   0  0  0  0  0  0  0  0  0  0  0  0
   -3.2258   12.8401   17.8923 C   0  0  0  0  0  0  0  0  0  0  0  0
   -3.4381   14.3129   17.5318 C   0  0  0  0  0  0  0  0  0  0  0  0
   -2.3433   15.2338   18.0827 C   0  0  0  0  0  0  0  0  0  0  0  0
   -2.5219   16.6974   17.6699 C   0  0  0  0  0  0  0  0  0  0  0  0
   -3.8203   18.3461   16.2180 C   0  0  0  0  0  0  0  0  0  0  0  0
   -3.5525   16.8874   16.5540 C   0  0  0  0  0  0  0  0  0  0  0  0
 23 24  1  0
 24 22  1  0
 22 21  1  0
 21 20  1  0
 20 19  1  0
 19 18  1  0
 18 17  1  0
 17 16  1  0
 16 15  1  0
 15 14  1  0
 14  1  1  0
  1  2  1  0
  2  3  1  0
  2  4  1  0
  2  5  1  0
  5  6  1  0
  6  7  1  0
  6  8  1  0
  6  9  1  0
  9 10  1  0
 10 11  1  0
 10 12  1  0
 10 13  1  0
M  END
> <minimizedAffinity>
-6.77909

> <CNNscore>
0.6746141911

> <CNNaffinity>
6.8616886139

> <CNN_VS>
4.6289925575

> <CNNaffinity_variance>
0.4480678141

$$$$



 24 23  0  0  0  0  0  0  0  0999 V2000
   -2.5569    5.2142   17.7402 C   0  0  0  0  0  0  0  0  0  0  0  0
   -3.3219    4.5309   18.9323 C   0  0  0  0  0  0  0  0  0  0  0  0
   -4.8167    4.4471   18.6022 C   0  0  0  0  0  0  0  0  0  0  0  0
   -3.1414    5.3915   20.1987 C   0  0  0  0  0  0  0  0  0  0  0  0
   -2.6447    3.1208   19.1080 C   0  0  0  0  0  0  0  0  0  0  0  0
   -2.9615    1.8424   18.2346 C   0  0  0  0  0  0  0  0  0  0  0  0
   -3.3218    2.2322   16.7935 C   0  0  0  0  0  0  0  0  0  0  0  0
   -4.2225    1.2188   18.8739 C   0  0  0  0  0  0  0  0  0  0  0  0
   -1.7470    0.8527   18.2759 C   0  0  0  0  0  0  0  0  0  0  0  0
   -0.3619    1.1294   17.6025 C   0  0  0  0  0  0  0  0  0  0  0  0
    0.8111    0.4282   18.2973 C   0  0  0  0  0  0  0  0  0  0  0  0
   -0.4475    0.5661   16.1593 C   0  0  0  0  0  0  0  0  0  0  0  0
   -0.0627    2.6339   17.4688 C   0  0  0  0  0  0  0  0  0  0  0  0
   -3.0267    6.6138   17.3159 C   0  0  0  0  0  0  0  0  0  0  0  0
   -1.9609    7.6977   17.5319 C   0  0  0  0  0  0  0  0  0  0  0  0
   -2.3432    8.7178   18.6082 C   0  0  0  0  0  0  0  0  0  0  0  0
   -1.9654   10.1578   18.2429 C   0  0  0  0  0  0  0  0  0  0  0  0
   -2.1398   11.1441   19.4005 C   0  0  0  0  0  0  0  0  0  0  0  0
   -1.5369   12.5245   19.1147 C   0  0  0  0  0  0  0  0  0  0  0  0
   -2.3709   13.3625   18.1418 C   0  0  0  0  0  0  0  0  0  0  0  0
   -1.9506   14.8362   18.0997 C   0  0  0  0  0  0  0  0  0  0  0  0
   -2.6531   15.6326   16.9968 C   0  0  0  0  0  0  0  0  0  0  0  0
   -4.1140   17.6543   16.4571 C   0  0  0  0  0  0  0  0  0  0  0  0
   -3.2505   16.9518   17.4932 C   0  0  0  0  0  0  0  0  0  0  0  0
 23 24  1  0
 24 22  1  0
 22 21  1  0
 21 20  1  0
 20 19  1  0
 19 18  1  0
 18 17  1  0
 17 16  1  0
 16 15  1  0
 15 14  1  0
 14  1  1  0
  1  2  1  0
  2  3  1  0
  2  4  1  0
  2  5  1  0
  5  6  1  0
  6  7  1  0
  6  8  1  0
  6  9  1  0
  9 10  1  0
 10 11  1  0
 10 12  1  0
 10 13  1  0
M  END
> <minimizedAffinity>
-5.87304

> <CNNscore>
0.6374481916

> <CNNaffinity>
6.3233642578

> <CNN_VS>
4.0308170319

> <CNNaffinity_variance>
0.5105659366

$$$$



 24 23  0  0  0  0  0  0  0  0999 V2000
   -2.1822    8.1421   19.7491 C   0  0  0  0  0  0  0  0  0  0  0  0
   -2.1676    6.7850   18.9545 C   0  0  0  0  0  0  0  0  0  0  0  0
   -1.0985    6.8440   17.8573 C   0  0  0  0  0  0  0  0  0  0  0  0
   -3.5453    6.5797   18.2936 C   0  0  0  0  0  0  0  0  0  0  0  0
   -1.8891    5.6735   20.0338 C   0  0  0  0  0  0  0  0  0  0  0  0
   -0.8320    4.5077   19.8896 C   0  0  0  0  0  0  0  0  0  0  0  0
    0.6030    5.0475   19.9799 C   0  0  0  0  0  0  0  0  0  0  0  0
   -1.0298    3.9576   18.4592 C   0  0  0  0  0  0  0  0  0  0  0  0
   -1.1008    3.4058   20.9712 C   0  0  0  0  0  0  0  0  0  0  0  0
   -0.9364    1.8695   20.7233 C   0  0  0  0  0  0  0  0  0  0  0  0
   -1.6454    1.3709   19.4588 C   0  0  0  0  0  0  0  0  0  0  0  0
    0.5815    1.6084   20.5353 C   0  0  0  0  0  0  0  0  0  0  0  0
   -1.3794    1.0275   21.9339 C   0  0  0  0  0  0  0  0  0  0  0  0
   -2.5637    9.4082   18.9674 C   0  0  0  0  0  0  0  0  0  0  0  0
   -3.1145   10.5262   19.8642 C   0  0  0  0  0  0  0  0  0  0  0  0
   -2.0765   11.6008   20.1999 C   0  0  0  0  0  0  0  0  0  0  0  0
   -1.4649   12.2639   18.9605 C   0  0  0  0  0  0  0  0  0  0  0  0
   -2.4219   13.2249   18.2507 C   0  0  0  0  0  0  0  0  0  0  0  0
   -1.7803   14.5751   17.9099 C   0  0  0  0  0  0  0  0  0  0  0  0
   -2.7980   15.7068   17.7428 C   0  0  0  0  0  0  0  0  0  0  0  0
   -3.5637   15.6401   16.4164 C   0  0  0  0  0  0  0  0  0  0  0  0
   -4.3368   16.9235   16.1010 C   0  0  0  0  0  0  0  0  0  0  0  0
   -3.6188   19.2355   15.2938 C   0  0  0  0  0  0  0  0  0  0  0  0
   -3.5405   18.1960   16.4010 C   0  0  0  0  0  0  0  0  0  0  0  0
 23 24  1  0
 24 22  1  0
 22 21  1  0
 21 20  1  0
 20 19  1  0
 19 18  1  0
 18 17  1  0
 17 16  1  0
 16 15  1  0
 15 14  1  0
 14  1  1  0
  1  2  1  0
  2  3  1  0
  2  4  1  0
  2  5  1  0
  5  6  1  0
  6  7  1  0
  6  8  1  0
  6  9  1  0
  9 10  1  0
 10 11  1  0
 10 12  1  0
 10 13  1  0
M  END
> <minimizedAffinity>
-6.65281

> <CNNscore>
0.6194824576

> <CNNaffinity>
6.7691874504

> <CNN_VS>
4.1933927536

> <CNNaffinity_variance>
0.6313632131

$$$$



 24 23  0  0  0  0  0  0  0  0999 V2000
   -1.0041    7.4626   19.4585 C   0  0  0  0  0  0  0  0  0  0  0  0
   -1.0950    5.8927   19.4739 C   0  0  0  0  0  0  0  0  0  0  0  0
   -2.0961    5.4469   20.5460 C   0  0  0  0  0  0  0  0  0  0  0  0
    0.2923    5.3166   19.8210 C   0  0  0  0  0  0  0  0  0  0  0  0
   -1.5251    5.4861   18.0153 C   0  0  0  0  0  0  0  0  0  0  0  0
   -1.6909    4.0035   17.4939 C   0  0  0  0  0  0  0  0  0  0  0  0
   -0.3466    3.2611   17.5002 C   0  0  0  0  0  0  0  0  0  0  0  0
   -2.1362    4.1409   16.0206 C   0  0  0  0  0  0  0  0  0  0  0  0
   -2.7665    3.2526   18.3515 C   0  0  0  0  0  0  0  0  0  0  0  0
   -4.3051    3.5266   18.2715 C   0  0  0  0  0  0  0  0  0  0  0  0
   -4.6572    4.8805   17.6446 C   0  0  0  0  0  0  0  0  0  0  0  0
   -4.9070    2.4248   17.3597 C   0  0  0  0  0  0  0  0  0  0  0  0
   -4.9988    3.3909   19.6394 C   0  0  0  0  0  0  0  0  0  0  0  0
   -2.2914    8.2364   19.1362 C   0  0  0  0  0  0  0  0  0  0  0  0
   -2.2435    8.9440   17.7743 C   0  0  0  0  0  0  0  0  0  0  0  0
   -1.5690   10.3176   17.8284 C   0  0  0  0  0  0  0  0  0  0  0  0
   -2.1096   11.2171   18.9459 C   0  0  0  0  0  0  0  0  0  0  0  0
   -2.1771   12.6960   18.5564 C   0  0  0  0  0  0  0  0  0  0  0  0
   -3.4097   13.0435   17.7134 C   0  0  0  0  0  0  0  0  0  0  0  0
   -3.4126   14.4888   17.2081 C   0  0  0  0  0  0  0  0  0  0  0  0
   -2.3325   15.3594   17.8605 C   0  0  0  0  0  0  0  0  0  0  0  0
   -2.6736   16.8520   17.8510 C   0  0  0  0  0  0  0  0  0  0  0  0
   -3.8061   18.2957   16.0774 C   0  0  0  0  0  0  0  0  0  0  0  0
   -3.9624   17.1709   17.0889 C   0  0  0  0  0  0  0  0  0  0  0  0
 23 24  1  0
 24 22  1  0
 22 21  1  0
 21 20  1  0
 20 19  1  0
 19 18  1  0
 18 17  1  0
 17 16  1  0
 16 15  1  0
 15 14  1  0
 14  1  1  0
  1  2  1  0
  2  3  1  0
  2  4  1  0
  2  5  1  0
  5  6  1  0
  6  7  1  0
  6  8  1  0
  6  9  1  0
  9 10  1  0
 10 11  1  0
 10 12  1  0
 10 13  1  0
M  END
> <minimizedAffinity>
-6.98437

> <CNNscore>
0.6150158644

> <CNNaffinity>
6.7297282219

> <CNN_VS>
4.1388897896

> <CNNaffinity_variance>
0.6502183676

$$$$



 24 23  0  0  0  0  0  0  0  0999 V2000
   -2.6304    5.2184   17.7375 C   0  0  0  0  0  0  0  0  0  0  0  0
   -3.0710    4.5156   19.0736 C   0  0  0  0  0  0  0  0  0  0  0  0
   -4.5356    4.8552   19.3736 C   0  0  0  0  0  0  0  0  0  0  0  0
   -2.1937    5.0426   20.2267 C   0  0  0  0  0  0  0  0  0  0  0  0
   -2.8260    2.9788   18.8361 C   0  0  0  0  0  0  0  0  0  0  0  0
   -3.9075    1.9543   18.3088 C   0  0  0  0  0  0  0  0  0  0  0  0
   -4.8626    2.6234   17.3094 C   0  0  0  0  0  0  0  0  0  0  0  0
   -4.7376    1.5669   19.5532 C   0  0  0  0  0  0  0  0  0  0  0  0
   -3.1989    0.7061   17.6794 C   0  0  0  0  0  0  0  0  0  0  0  0
   -2.5177    0.6971   16.2706 C   0  0  0  0  0  0  0  0  0  0  0  0
   -3.4994    0.4762   15.1139 C   0  0  0  0  0  0  0  0  0  0  0  0
   -1.8808    2.0983   16.0746 C   0  0  0  0  0  0  0  0  0  0  0  0
   -1.3685   -0.3235   16.1792 C   0  0  0  0  0  0  0  0  0  0  0  0
   -3.1581    6.6388   17.4854 C   0  0  0  0  0  0  0  0  0  0  0  0
   -2.0680    7.7144   17.5958 C   0  0  0  0  0  0  0  0  0  0  0  0
   -2.3127    8.7110   18.7325 C   0  0  0  0  0  0  0  0  0  0  0  0
   -2.0662   10.1686   18.3269 C   0  0  0  0  0  0  0  0  0  0  0  0
   -2.0849   11.1399   19.5099 C   0  0  0  0  0  0  0  0  0  0  0  0
   -1.4947   12.5143   19.1731 C   0  0  0  0  0  0  0  0  0  0  0  0
   -2.3979   13.3590   18.2703 C   0  0  0  0  0  0  0  0  0  0  0  0
   -1.9016   14.7990   18.0961 C   0  0  0  0  0  0  0  0  0  0  0  0
   -2.6539   15.5688   17.0073 C   0  0  0  0  0  0  0  0  0  0  0  0
   -4.0111   17.6583   16.4552 C   0  0  0  0  0  0  0  0  0  0  0  0
   -3.0954   16.9655   17.4523 C   0  0  0  0  0  0  0  0  0  0  0  0
 23 24  1  0
 24 22  1  0
 22 21  1  0
 21 20  1  0
 20 19  1  0
 19 18  1  0
 18 17  1  0
 17 16  1  0
 16 15  1  0
 15 14  1  0
 14  1  1  0
  1  2  1  0
  2  3  1  0
  2  4  1  0
  2  5  1  0
  5  6  1  0
  6  7  1  0
  6  8  1  0
  6  9  1  0
  9 10  1  0
 10 11  1  0
 10 12  1  0
 10 13  1  0
M  END
> <minimizedAffinity>
-6.05988

> <CNNscore>
0.6058910489

> <CNNaffinity>
6.3032078743

> <CNN_VS>
3.8190572262

> <CNNaffinity_variance>
0.6095964313

$$$$



 24 23  0  0  0  0  0  0  0  0999 V2000
   -3.1952    5.6668   19.8138 C   0  0  0  0  0  0  0  0  0  0  0  0
   -2.8859    4.1252   19.8423 C   0  0  0  0  0  0  0  0  0  0  0  0
   -4.1191    3.3633   20.3414 C   0  0  0  0  0  0  0  0  0  0  0  0
   -1.7177    3.8693   20.8155 C   0  0  0  0  0  0  0  0  0  0  0  0
   -2.4817    3.7542   18.3669 C   0  0  0  0  0  0  0  0  0  0  0  0
   -3.1716    4.3211   17.0630 C   0  0  0  0  0  0  0  0  0  0  0  0
   -2.3021    5.4005   16.4016 C   0  0  0  0  0  0  0  0  0  0  0  0
   -4.4651    5.0075   17.5563 C   0  0  0  0  0  0  0  0  0  0  0  0
   -3.4855    3.1485   16.0717 C   0  0  0  0  0  0  0  0  0  0  0  0
   -2.3993    2.2223   15.4307 C   0  0  0  0  0  0  0  0  0  0  0  0
   -1.2597    1.8563   16.3886 C   0  0  0  0  0  0  0  0  0  0  0  0
   -3.1144    0.9025   15.0380 C   0  0  0  0  0  0  0  0  0  0  0  0
   -1.8179    2.8092   14.1313 C   0  0  0  0  0  0  0  0  0  0  0  0
   -2.0727    6.6156   20.2604 C   0  0  0  0  0  0  0  0  0  0  0  0
   -1.4312    7.3804   19.0937 C   0  0  0  0  0  0  0  0  0  0  0  0
   -2.2772    8.5588   18.6032 C   0  0  0  0  0  0  0  0  0  0  0  0
   -1.9430    9.8807   19.3038 C   0  0  0  0  0  0  0  0  0  0  0  0
   -1.6730   11.0321   18.3319 C   0  0  0  0  0  0  0  0  0  0  0  0
   -2.4265   12.3176   18.6933 C   0  0  0  0  0  0  0  0  0  0  0  0
   -3.4727   12.7223   17.6512 C   0  0  0  0  0  0  0  0  0  0  0  0
   -3.5947   14.2403   17.4752 C   0  0  0  0  0  0  0  0  0  0  0  0
   -2.2608   14.9751   17.6331 C   0  0  0  0  0  0  0  0  0  0  0  0
   -3.4097   17.1617   16.9918 C   0  0  0  0  0  0  0  0  0  0  0  0
   -2.4264   16.4692   17.9225 C   0  0  0  0  0  0  0  0  0  0  0  0
 23 24  1  0
 24 22  1  0
 22 21  1  0
 21 20  1  0
 20 19  1  0
 19 18  1  0
 18 17  1  0
 17 16  1  0
 16 15  1  0
 15 14  1  0
 14  1  1  0
  1  2  1  0
  2  3  1  0
  2  4  1  0
  2  5  1  0
  5  6  1  0
  6  7  1  0
  6  8  1  0
  6  9  1  0
  9 10  1  0
 10 11  1  0
 10 12  1  0
 10 13  1  0
M  END
> <minimizedAffinity>
-6.19866

> <CNNscore>
0.6050903201

> <CNNaffinity>
6.3540368080

> <CNN_VS>
3.8447661400

> <CNNaffinity_variance>
0.6328367591

$$$$
